/*---------------------------------------------------------------------------*\
  =========                 |
  \\      /  F ield         | OpenFOAM: The Open Source CFD Toolbox
   \\    /   O peration     | Website:  https://openfoam.org
    \\  /    A nd           | Version:  11
     \\/     M anipulation  |
\*---------------------------------------------------------------------------*/
Build  : 11-d5b4d966c3c5
Exec   : foamRun
Date   : Nov 15 2023
Time   : 17:31:43
Host   : "DESKTOP-IS5RTTG"
PID    : 24167
I/O    : uncollated
Case   : /home/cececerece/OpenFOAM/cececerece-11/run/test_case_Darcy
nProcs : 1
sigFpe : Enabling floating point exception trapping (FOAM_SIGFPE).
fileModificationChecking : Monitoring run-time modified files using timeStampMaster (fileModificationSkew 10)
allowSystemOperations : Allowing user-supplied system call operations

// * * * * * * * * * * * * * * * * * * * * * * * * * * * * * * * * * * * * * //
Create time

--> FOAM Warning : 
    From function void Foam::Time::setControls()
    in file db/Time/Time.C at line 195
    Increasing the timePrecision from 6 to 8 to support the formatting of the current time directory 39.993644

Create mesh for time = 39.993644

Selecting solver incompressibleFluid
Selecting viscosity model constant
Selecting turbulence model type laminar
Selecting laminar stress model Stokes
No MRF models present

Courant Number mean: 0.0857878 max: 1.0248
Creating fvModels from "constant/fvModels"

Selecting finite volume model type explicitPorositySource
    Name: porosity
    - selecting cells using cellZone porousBlockage
    - selected 22675 cell(s) with volume 0.806222
Porosity region porosity:
    selecting model: DarcyForchheimer
    creating porous zone: porousBlockage

PIMPLE: No convergence criteria found


PIMPLE: Operating solver in transient mode with 1 outer corrector
PIMPLE: Operating solver in PISO mode



Starting time loop

Courant Number mean: 0.0857878 max: 1.0248
deltaT = 0.0335887
Time = 40.027233s

smoothSolver:  Solving for Ux, Initial residual = 0.000254902, Final residual = 8.92915e-06, No Iterations 3
smoothSolver:  Solving for Uy, Initial residual = 6.40421e-05, Final residual = 7.97615e-06, No Iterations 5
GAMG:  Solving for p, Initial residual = 0.000122758, Final residual = 1.00577e-05, No Iterations 1
time step continuity errors : sum local = 0.00149557, global = -1.65142e-07
GAMG:  Solving for p, Initial residual = 2.52392e-05, Final residual = 8.26675e-07, No Iterations 5
time step continuity errors : sum local = 0.000122917, global = -1.73698e-06, cumulative = -1.73698e-06
ExecutionTime = 1.98317 s  ClockTime = 2 s

Courant Number mean: 0.0821003 max: 0.971147
deltaT = 0.0345866
Time = 40.061819s

smoothSolver:  Solving for Ux, Initial residual = 0.000383551, Final residual = 9.29616e-06, No Iterations 6
smoothSolver:  Solving for Uy, Initial residual = 0.000198806, Final residual = 9.67968e-06, No Iterations 8
GAMG:  Solving for p, Initial residual = 2.79605e-05, Final residual = 1.97811e-06, No Iterations 7
time step continuity errors : sum local = 0.000304893, global = -4.85124e-06
GAMG:  Solving for p, Initial residual = 2.2753e-05, Final residual = 7.65633e-07, No Iterations 9
time step continuity errors : sum local = 0.000117998, global = -1.75806e-06, cumulative = -3.49504e-06
ExecutionTime = 2.39406 s  ClockTime = 2 s

Courant Number mean: 0.0878669 max: 1.05009
deltaT = 0.0329367
Time = 40.094756s

smoothSolver:  Solving for Ux, Initial residual = 0.00034134, Final residual = 9.31855e-06, No Iterations 4
smoothSolver:  Solving for Uy, Initial residual = 0.000113334, Final residual = 9.24259e-06, No Iterations 6
GAMG:  Solving for p, Initial residual = 1.13474e-05, Final residual = 1.02282e-06, No Iterations 7
time step continuity errors : sum local = 0.000148713, global = -2.50039e-06
GAMG:  Solving for p, Initial residual = 9.59897e-06, Final residual = 9.8206e-07, No Iterations 6
time step continuity errors : sum local = 0.000142804, global = -1.97031e-06, cumulative = -5.46535e-06
ExecutionTime = 2.79309 s  ClockTime = 3 s

Courant Number mean: 0.0788427 max: 1.02098
deltaT = 0.03226
Time = 40.127016s

smoothSolver:  Solving for Ux, Initial residual = 0.000455945, Final residual = 9.32679e-06, No Iterations 2
smoothSolver:  Solving for Uy, Initial residual = 6.58651e-05, Final residual = 8.12944e-06, No Iterations 5
GAMG:  Solving for p, Initial residual = 6.31066e-06, Final residual = 7.77532e-07, No Iterations 6
time step continuity errors : sum local = 0.000109997, global = -3.76752e-06
GAMG:  Solving for p, Initial residual = 4.17648e-06, Final residual = 9.83584e-07, No Iterations 3
time step continuity errors : sum local = 0.000139146, global = -2.00193e-06, cumulative = -7.46728e-06
ExecutionTime = 3.09372 s  ClockTime = 3 s

Courant Number mean: 0.0813282 max: 0.961751
deltaT = 0.033543
Time = 40.160559s

smoothSolver:  Solving for Ux, Initial residual = 0.00102621, Final residual = 7.55435e-06, No Iterations 6
smoothSolver:  Solving for Uy, Initial residual = 5.82446e-05, Final residual = 7.40461e-06, No Iterations 5
GAMG:  Solving for p, Initial residual = 7.09834e-06, Final residual = 8.94313e-07, No Iterations 5
time step continuity errors : sum local = 0.000132839, global = -2.83912e-06
GAMG:  Solving for p, Initial residual = 5.41992e-06, Final residual = 7.9428e-07, No Iterations 5
time step continuity errors : sum local = 0.000117994, global = -1.82358e-06, cumulative = -9.29086e-06
ExecutionTime = 3.41523 s  ClockTime = 3 s

Courant Number mean: 0.0815263 max: 1.03093
deltaT = 0.0325367
Time = 40.193096s

smoothSolver:  Solving for Ux, Initial residual = 0.000623542, Final residual = 6.9481e-06, No Iterations 5
smoothSolver:  Solving for Uy, Initial residual = 7.74752e-05, Final residual = 9.49107e-06, No Iterations 5
GAMG:  Solving for p, Initial residual = 7.63557e-06, Final residual = 8.70545e-07, No Iterations 6
time step continuity errors : sum local = 0.000124573, global = -2.89353e-06
GAMG:  Solving for p, Initial residual = 5.0093e-06, Final residual = 6.95063e-07, No Iterations 5
time step continuity errors : sum local = 9.94596e-05, global = -1.85941e-06, cumulative = -1.11503e-05
ExecutionTime = 3.74922 s  ClockTime = 4 s

Courant Number mean: 0.0811202 max: 0.94121
deltaT = 0.034569
Time = 40.227665s

smoothSolver:  Solving for Ux, Initial residual = 0.000626007, Final residual = 9.34099e-06, No Iterations 3
smoothSolver:  Solving for Uy, Initial residual = 7.13532e-05, Final residual = 9.48529e-06, No Iterations 5
GAMG:  Solving for p, Initial residual = 5.7139e-06, Final residual = 8.21485e-07, No Iterations 5
time step continuity errors : sum local = 0.000126653, global = -4.00781e-06
GAMG:  Solving for p, Initial residual = 3.8136e-06, Final residual = 7.16169e-07, No Iterations 5
time step continuity errors : sum local = 0.000110429, global = -1.7841e-06, cumulative = -1.29344e-05
ExecutionTime = 4.12571 s  ClockTime = 4 s

Courant Number mean: 0.0836325 max: 1.09861
deltaT = 0.0314661
Time = 40.259131s

smoothSolver:  Solving for Ux, Initial residual = 0.000287019, Final residual = 7.05697e-06, No Iterations 3
smoothSolver:  Solving for Uy, Initial residual = 7.75121e-05, Final residual = 8.89683e-06, No Iterations 5
GAMG:  Solving for p, Initial residual = 7.04757e-06, Final residual = 8.7941e-07, No Iterations 6
time step continuity errors : sum local = 0.000120782, global = -1.76381e-06
GAMG:  Solving for p, Initial residual = 4.15202e-06, Final residual = 9.31611e-07, No Iterations 4
time step continuity errors : sum local = 0.000127949, global = -1.91544e-06, cumulative = -1.48498e-05
ExecutionTime = 4.44199 s  ClockTime = 4 s

Courant Number mean: 0.078126 max: 0.917167
deltaT = 0.034308
Time = 40.293439s

smoothSolver:  Solving for Ux, Initial residual = 0.000771647, Final residual = 7.1705e-06, No Iterations 6
smoothSolver:  Solving for Uy, Initial residual = 6.22258e-05, Final residual = 8.33788e-06, No Iterations 5
GAMG:  Solving for p, Initial residual = 9.2732e-06, Final residual = 7.86885e-07, No Iterations 7
time step continuity errors : sum local = 0.000120239, global = -2.9355e-06
GAMG:  Solving for p, Initial residual = 8.1716e-06, Final residual = 8.76095e-07, No Iterations 6
time step continuity errors : sum local = 0.000133894, global = -1.56047e-06, cumulative = -1.64103e-05
ExecutionTime = 4.86317 s  ClockTime = 5 s

Courant Number mean: 0.0834187 max: 1.09445
deltaT = 0.0313472
Time = 40.324786s

smoothSolver:  Solving for Ux, Initial residual = 0.000273812, Final residual = 9.03416e-06, No Iterations 1
smoothSolver:  Solving for Uy, Initial residual = 7.04786e-05, Final residual = 7.90792e-06, No Iterations 5
GAMG:  Solving for p, Initial residual = 5.44426e-06, Final residual = 9.57597e-07, No Iterations 4
time step continuity errors : sum local = 0.000131131, global = -3.84121e-06
GAMG:  Solving for p, Initial residual = 3.42707e-06, Final residual = 7.00754e-07, No Iterations 4
time step continuity errors : sum local = 9.59569e-05, global = -1.70827e-06, cumulative = -1.81185e-05
ExecutionTime = 5.16998 s  ClockTime = 5 s

Courant Number mean: 0.0783899 max: 0.906363
deltaT = 0.0345857
Time = 40.359372s

smoothSolver:  Solving for Ux, Initial residual = 0.00062028, Final residual = 7.91478e-06, No Iterations 4
smoothSolver:  Solving for Uy, Initial residual = 7.72592e-05, Final residual = 7.39706e-06, No Iterations 6
GAMG:  Solving for p, Initial residual = 6.97901e-06, Final residual = 9.18229e-07, No Iterations 5
time step continuity errors : sum local = 0.00014195, global = -5.57709e-06
GAMG:  Solving for p, Initial residual = 5.2955e-06, Final residual = 7.7647e-07, No Iterations 5
time step continuity errors : sum local = 0.000120044, global = -2.22417e-06, cumulative = -2.03427e-05
ExecutionTime = 5.49156 s  ClockTime = 6 s

Courant Number mean: 0.0840128 max: 1.08743
deltaT = 0.0318049
Time = 40.391176s

smoothSolver:  Solving for Ux, Initial residual = 0.000306126, Final residual = 7.94408e-06, No Iterations 3
smoothSolver:  Solving for Uy, Initial residual = 7.94246e-05, Final residual = 9.14333e-06, No Iterations 5
GAMG:  Solving for p, Initial residual = 7.60074e-06, Final residual = 6.95169e-07, No Iterations 6
time step continuity errors : sum local = 9.68197e-05, global = -2.97322e-06
GAMG:  Solving for p, Initial residual = 4.88744e-06, Final residual = 9.53161e-07, No Iterations 4
time step continuity errors : sum local = 0.000132746, global = -2.37747e-06, cumulative = -2.27202e-05
ExecutionTime = 5.82151 s  ClockTime = 6 s

Courant Number mean: 0.0804174 max: 0.942193
deltaT = 0.0337563
Time = 40.424933s

smoothSolver:  Solving for Ux, Initial residual = 0.000647863, Final residual = 7.7305e-06, No Iterations 5
smoothSolver:  Solving for Uy, Initial residual = 5.75199e-05, Final residual = 7.57861e-06, No Iterations 5
GAMG:  Solving for p, Initial residual = 8.46462e-06, Final residual = 7.16282e-07, No Iterations 6
time step continuity errors : sum local = 0.000107312, global = -2.788e-06
GAMG:  Solving for p, Initial residual = 5.80477e-06, Final residual = 8.09776e-07, No Iterations 5
time step continuity errors : sum local = 0.000121336, global = -1.64288e-06, cumulative = -2.43631e-05
ExecutionTime = 6.16903 s  ClockTime = 6 s

Courant Number mean: 0.0826844 max: 1.03399
deltaT = 0.0326466
Time = 40.457579s

smoothSolver:  Solving for Ux, Initial residual = 0.000510773, Final residual = 7.2333e-06, No Iterations 3
smoothSolver:  Solving for Uy, Initial residual = 7.46679e-05, Final residual = 8.98299e-06, No Iterations 5
GAMG:  Solving for p, Initial residual = 5.78705e-06, Final residual = 9.04966e-07, No Iterations 5
time step continuity errors : sum local = 0.000130395, global = -3.60836e-06
GAMG:  Solving for p, Initial residual = 3.6305e-06, Final residual = 9.01292e-07, No Iterations 4
time step continuity errors : sum local = 0.000129861, global = -2.18639e-06, cumulative = -2.65495e-05
ExecutionTime = 6.47483 s  ClockTime = 6 s

Courant Number mean: 0.0824479 max: 0.968058
deltaT = 0.0337238
Time = 40.491303s

smoothSolver:  Solving for Ux, Initial residual = 0.000244598, Final residual = 9.50879e-06, No Iterations 1
smoothSolver:  Solving for Uy, Initial residual = 6.7751e-05, Final residual = 8.89584e-06, No Iterations 5
GAMG:  Solving for p, Initial residual = 6.76956e-06, Final residual = 8.38323e-07, No Iterations 6
time step continuity errors : sum local = 0.000125557, global = -2.76297e-06
GAMG:  Solving for p, Initial residual = 4.58799e-06, Final residual = 9.8674e-07, No Iterations 4
time step continuity errors : sum local = 0.000147809, global = -1.66923e-06, cumulative = -2.82187e-05
ExecutionTime = 6.78725 s  ClockTime = 7 s

Courant Number mean: 0.0810793 max: 1.01443
deltaT = 0.033244
Time = 40.524547s

smoothSolver:  Solving for Ux, Initial residual = 0.000748471, Final residual = 8.018e-06, No Iterations 6
smoothSolver:  Solving for Uy, Initial residual = 6.35379e-05, Final residual = 7.83601e-06, No Iterations 5
GAMG:  Solving for p, Initial residual = 9.49863e-06, Final residual = 9.99677e-07, No Iterations 6
time step continuity errors : sum local = 0.000147342, global = -3.76629e-06
GAMG:  Solving for p, Initial residual = 6.17562e-06, Final residual = 7.9975e-07, No Iterations 5
time step continuity errors : sum local = 0.00011787, global = -1.99396e-06, cumulative = -3.02126e-05
ExecutionTime = 7.1387 s  ClockTime = 7 s

Courant Number mean: 0.0818415 max: 0.952628
deltaT = 0.0348971
Time = 40.559444s

smoothSolver:  Solving for Ux, Initial residual = 0.000666098, Final residual = 8.98971e-06, No Iterations 4
smoothSolver:  Solving for Uy, Initial residual = 7.23628e-05, Final residual = 9.99394e-06, No Iterations 5
GAMG:  Solving for p, Initial residual = 6.64099e-06, Final residual = 9.23182e-07, No Iterations 5
time step continuity errors : sum local = 0.000144224, global = -3.91904e-06
GAMG:  Solving for p, Initial residual = 4.40287e-06, Final residual = 8.18833e-07, No Iterations 5
time step continuity errors : sum local = 0.000127937, global = -1.91973e-06, cumulative = -3.21324e-05
ExecutionTime = 7.47208 s  ClockTime = 7 s

Courant Number mean: 0.0837481 max: 1.08797
deltaT = 0.0320755
Time = 40.59152s

smoothSolver:  Solving for Ux, Initial residual = 0.000272904, Final residual = 7.65517e-06, No Iterations 3
smoothSolver:  Solving for Uy, Initial residual = 7.6765e-05, Final residual = 8.94952e-06, No Iterations 5
GAMG:  Solving for p, Initial residual = 8.14563e-06, Final residual = 7.40483e-07, No Iterations 7
time step continuity errors : sum local = 0.000104317, global = -2.0086e-06
GAMG:  Solving for p, Initial residual = 6.61304e-06, Final residual = 7.7623e-07, No Iterations 6
time step continuity errors : sum local = 0.000109352, global = -1.19921e-06, cumulative = -3.33316e-05
ExecutionTime = 7.84156 s  ClockTime = 8 s

Courant Number mean: 0.0786651 max: 0.905177
deltaT = 0.0354356
Time = 40.626955s

smoothSolver:  Solving for Ux, Initial residual = 0.000580951, Final residual = 8.82946e-06, No Iterations 3
smoothSolver:  Solving for Uy, Initial residual = 6.7656e-05, Final residual = 9.35995e-06, No Iterations 5
GAMG:  Solving for p, Initial residual = 5.1986e-06, Final residual = 7.32429e-07, No Iterations 5
time step continuity errors : sum local = 0.000116618, global = -2.44455e-06
GAMG:  Solving for p, Initial residual = 4.01177e-06, Final residual = 7.36446e-07, No Iterations 5
time step continuity errors : sum local = 0.000117272, global = -1.81607e-06, cumulative = -3.51476e-05
ExecutionTime = 8.16356 s  ClockTime = 8 s

Courant Number mean: 0.0842044 max: 1.0414
deltaT = 0.0340271
Time = 40.660982s

smoothSolver:  Solving for Ux, Initial residual = 0.000458563, Final residual = 9.68982e-06, No Iterations 3
smoothSolver:  Solving for Uy, Initial residual = 7.30224e-05, Final residual = 9.39537e-06, No Iterations 5
GAMG:  Solving for p, Initial residual = 6.22373e-06, Final residual = 8.5268e-07, No Iterations 6
time step continuity errors : sum local = 0.000129229, global = -4.79848e-06
GAMG:  Solving for p, Initial residual = 3.56666e-06, Final residual = 9.38843e-07, No Iterations 4
time step continuity errors : sum local = 0.000142286, global = -2.31322e-06, cumulative = -3.74609e-05
ExecutionTime = 8.49976 s  ClockTime = 9 s

Courant Number mean: 0.0839856 max: 0.979586
deltaT = 0.0347362
Time = 40.695719s

smoothSolver:  Solving for Ux, Initial residual = 0.000324146, Final residual = 7.76641e-06, No Iterations 4
smoothSolver:  Solving for Uy, Initial residual = 6.08859e-05, Final residual = 8.30827e-06, No Iterations 5
GAMG:  Solving for p, Initial residual = 8.9622e-06, Final residual = 8.69482e-07, No Iterations 7
time step continuity errors : sum local = 0.000135169, global = -1.78903e-06
GAMG:  Solving for p, Initial residual = 7.84236e-06, Final residual = 8.02698e-07, No Iterations 6
time step continuity errors : sum local = 0.000124803, global = -1.8363e-06, cumulative = -3.92972e-05
ExecutionTime = 8.86701 s  ClockTime = 9 s

Courant Number mean: 0.0822488 max: 1.02302
deltaT = 0.0339546
Time = 40.729673s

smoothSolver:  Solving for Ux, Initial residual = 0.000403982, Final residual = 7.14331e-06, No Iterations 2
smoothSolver:  Solving for Uy, Initial residual = 7.25424e-05, Final residual = 9.17312e-06, No Iterations 5
GAMG:  Solving for p, Initial residual = 5.15902e-06, Final residual = 8.94426e-07, No Iterations 5
time step continuity errors : sum local = 0.000135171, global = -3.02677e-06
GAMG:  Solving for p, Initial residual = 3.69463e-06, Final residual = 9.54277e-07, No Iterations 4
time step continuity errors : sum local = 0.000144216, global = -1.98689e-06, cumulative = -4.12841e-05
ExecutionTime = 9.16126 s  ClockTime = 9 s

Courant Number mean: 0.0839627 max: 0.977171
deltaT = 0.0347478
Time = 40.764421s

smoothSolver:  Solving for Ux, Initial residual = 0.00030207, Final residual = 7.9678e-06, No Iterations 2
smoothSolver:  Solving for Uy, Initial residual = 6.12093e-05, Final residual = 8.4068e-06, No Iterations 5
GAMG:  Solving for p, Initial residual = 6.2908e-06, Final residual = 8.15134e-07, No Iterations 6
time step continuity errors : sum local = 0.00012681, global = -2.7604e-06
GAMG:  Solving for p, Initial residual = 4.17583e-06, Final residual = 8.58548e-07, No Iterations 4
time step continuity errors : sum local = 0.000133585, global = -1.71049e-06, cumulative = -4.29946e-05
ExecutionTime = 9.47298 s  ClockTime = 9 s

Courant Number mean: 0.0816295 max: 1.00182
deltaT = 0.0346848
Time = 40.799106s

smoothSolver:  Solving for Ux, Initial residual = 0.000623661, Final residual = 9.2582e-06, No Iterations 5
smoothSolver:  Solving for Uy, Initial residual = 6.8194e-05, Final residual = 8.93624e-06, No Iterations 5
GAMG:  Solving for p, Initial residual = 8.72321e-06, Final residual = 7.65448e-07, No Iterations 7
time step continuity errors : sum local = 0.00011894, global = -2.40736e-06
GAMG:  Solving for p, Initial residual = 7.49989e-06, Final residual = 6.78544e-07, No Iterations 6
time step continuity errors : sum local = 0.000105435, global = -1.67033e-06, cumulative = -4.46649e-05
ExecutionTime = 9.84967 s  ClockTime = 10 s

Courant Number mean: 0.0838001 max: 0.97158
deltaT = 0.0356994
Time = 40.834805s

smoothSolver:  Solving for Ux, Initial residual = 0.000339301, Final residual = 8.8814e-06, No Iterations 1
smoothSolver:  Solving for Uy, Initial residual = 7.06285e-05, Final residual = 9.88652e-06, No Iterations 5
GAMG:  Solving for p, Initial residual = 4.71567e-06, Final residual = 7.82907e-07, No Iterations 5
time step continuity errors : sum local = 0.000125921, global = -3.79534e-06
GAMG:  Solving for p, Initial residual = 3.38548e-06, Final residual = 8.73472e-07, No Iterations 4
time step continuity errors : sum local = 0.000140503, global = -2.06857e-06, cumulative = -4.67335e-05
ExecutionTime = 10.1473 s  ClockTime = 10 s

Courant Number mean: 0.0822893 max: 1.0076
deltaT = 0.03543
Time = 40.870235s

smoothSolver:  Solving for Ux, Initial residual = 0.00054557, Final residual = 9.81093e-06, No Iterations 3
smoothSolver:  Solving for Uy, Initial residual = 6.58872e-05, Final residual = 9.02557e-06, No Iterations 5
GAMG:  Solving for p, Initial residual = 6.04226e-06, Final residual = 8.09834e-07, No Iterations 6
time step continuity errors : sum local = 0.000129082, global = -4.19991e-06
GAMG:  Solving for p, Initial residual = 3.91121e-06, Final residual = 8.49855e-07, No Iterations 4
time step continuity errors : sum local = 0.000135456, global = -2.15612e-06, cumulative = -4.88896e-05
ExecutionTime = 10.4672 s  ClockTime = 10 s

Courant Number mean: 0.0850703 max: 0.988863
deltaT = 0.0358291
Time = 40.906064s

smoothSolver:  Solving for Ux, Initial residual = 0.000276776, Final residual = 9.69241e-06, No Iterations 3
smoothSolver:  Solving for Uy, Initial residual = 6.41125e-05, Final residual = 9.06945e-06, No Iterations 5
GAMG:  Solving for p, Initial residual = 8.06817e-06, Final residual = 9.37063e-07, No Iterations 6
time step continuity errors : sum local = 0.000151435, global = -4.5893e-06
GAMG:  Solving for p, Initial residual = 4.93357e-06, Final residual = 8.23634e-07, No Iterations 5
time step continuity errors : sum local = 0.000133118, global = -2.16976e-06, cumulative = -5.10593e-05
ExecutionTime = 10.8294 s  ClockTime = 11 s

Courant Number mean: 0.0831858 max: 1.07544
deltaT = 0.0333159
Time = 40.93938s

smoothSolver:  Solving for Ux, Initial residual = 0.000271376, Final residual = 7.1154e-06, No Iterations 2
smoothSolver:  Solving for Uy, Initial residual = 7.35262e-05, Final residual = 9.13131e-06, No Iterations 5
GAMG:  Solving for p, Initial residual = 6.12458e-06, Final residual = 8.58693e-07, No Iterations 5
time step continuity errors : sum local = 0.000126984, global = -2.15212e-06
GAMG:  Solving for p, Initial residual = 3.97719e-06, Final residual = 9.86913e-07, No Iterations 4
time step continuity errors : sum local = 0.00014594, global = -2.08996e-06, cumulative = -5.31493e-05
ExecutionTime = 11.1294 s  ClockTime = 11 s

Courant Number mean: 0.0804668 max: 0.942447
deltaT = 0.0353504
Time = 40.974731s

smoothSolver:  Solving for Ux, Initial residual = 0.000250154, Final residual = 8.84837e-06, No Iterations 1
smoothSolver:  Solving for Uy, Initial residual = 6.28135e-05, Final residual = 8.78002e-06, No Iterations 5
GAMG:  Solving for p, Initial residual = 6.85001e-06, Final residual = 8.42579e-07, No Iterations 6
time step continuity errors : sum local = 0.000133996, global = -3.1269e-06
GAMG:  Solving for p, Initial residual = 4.70736e-06, Final residual = 9.63863e-07, No Iterations 4
time step continuity errors : sum local = 0.00015331, global = -1.68463e-06, cumulative = -5.48339e-05
ExecutionTime = 11.4485 s  ClockTime = 11 s

Courant Number mean: 0.0807118 max: 0.984639
deltaT = 0.0359019
Time = 41.010633s

smoothSolver:  Solving for Ux, Initial residual = 0.000758351, Final residual = 9.46575e-06, No Iterations 6
smoothSolver:  Solving for Uy, Initial residual = 6.35046e-05, Final residual = 8.8172e-06, No Iterations 5
GAMG:  Solving for p, Initial residual = 9.82275e-06, Final residual = 7.50799e-07, No Iterations 7
time step continuity errors : sum local = 0.000121867, global = -2.44832e-06
GAMG:  Solving for p, Initial residual = 8.3654e-06, Final residual = 9.85914e-07, No Iterations 5
time step continuity errors : sum local = 0.000160025, global = -2.11442e-06, cumulative = -5.69483e-05
ExecutionTime = 12.3191 s  ClockTime = 12 s

Courant Number mean: 0.0839972 max: 0.983449
deltaT = 0.0365061
Time = 41.047139s

smoothSolver:  Solving for Ux, Initial residual = 0.000809147, Final residual = 7.4048e-06, No Iterations 6
smoothSolver:  Solving for Uy, Initial residual = 5.88945e-05, Final residual = 8.64414e-06, No Iterations 5
GAMG:  Solving for p, Initial residual = 8.95435e-06, Final residual = 7.78344e-07, No Iterations 7
time step continuity errors : sum local = 0.000128763, global = -2.99303e-06
GAMG:  Solving for p, Initial residual = 7.84109e-06, Final residual = 9.17806e-07, No Iterations 6
time step continuity errors : sum local = 0.000151859, global = -1.75026e-06, cumulative = -5.86986e-05
ExecutionTime = 12.6989 s  ClockTime = 13 s

Courant Number mean: 0.0840105 max: 1.06172
deltaT = 0.0343839
Time = 41.081523s

smoothSolver:  Solving for Ux, Initial residual = 0.00027326, Final residual = 9.39009e-06, No Iterations 1
smoothSolver:  Solving for Uy, Initial residual = 6.77283e-05, Final residual = 8.75181e-06, No Iterations 5
GAMG:  Solving for p, Initial residual = 5.83203e-06, Final residual = 6.82657e-07, No Iterations 5
time step continuity errors : sum local = 0.000105062, global = -4.88045e-06
GAMG:  Solving for p, Initial residual = 3.87577e-06, Final residual = 7.99437e-07, No Iterations 4
time step continuity errors : sum local = 0.000123031, global = -2.04831e-06, cumulative = -6.07469e-05
ExecutionTime = 12.995 s  ClockTime = 13 s

Courant Number mean: 0.0816033 max: 0.946455
deltaT = 0.0363291
Time = 41.117852s

smoothSolver:  Solving for Ux, Initial residual = 0.000252126, Final residual = 8.89913e-06, No Iterations 1
smoothSolver:  Solving for Uy, Initial residual = 6.29252e-05, Final residual = 9.11331e-06, No Iterations 5
GAMG:  Solving for p, Initial residual = 6.01604e-06, Final residual = 9.6518e-07, No Iterations 5
time step continuity errors : sum local = 0.00015888, global = -4.02221e-06
GAMG:  Solving for p, Initial residual = 4.01913e-06, Final residual = 9.67375e-07, No Iterations 4
time step continuity errors : sum local = 0.000159257, global = -2.24124e-06, cumulative = -6.29882e-05
ExecutionTime = 13.2914 s  ClockTime = 13 s

Courant Number mean: 0.0828562 max: 0.993863
deltaT = 0.0365534
Time = 41.154405s

smoothSolver:  Solving for Ux, Initial residual = 0.000663787, Final residual = 9.72982e-06, No Iterations 4
smoothSolver:  Solving for Uy, Initial residual = 7.10823e-05, Final residual = 7.25363e-06, No Iterations 6
GAMG:  Solving for p, Initial residual = 7.99617e-06, Final residual = 7.11883e-07, No Iterations 7
time step continuity errors : sum local = 0.000118083, global = -2.74763e-06
GAMG:  Solving for p, Initial residual = 6.06465e-06, Final residual = 7.81067e-07, No Iterations 6
time step continuity errors : sum local = 0.000129554, global = -2.03864e-06, cumulative = -6.50268e-05
ExecutionTime = 13.6671 s  ClockTime = 14 s

Courant Number mean: 0.0865943 max: 0.989184
deltaT = 0.0369531
Time = 41.191358s

smoothSolver:  Solving for Ux, Initial residual = 0.000285877, Final residual = 9.47892e-06, No Iterations 1
smoothSolver:  Solving for Uy, Initial residual = 6.68448e-05, Final residual = 9.74516e-06, No Iterations 5
GAMG:  Solving for p, Initial residual = 5.65146e-06, Final residual = 9.70288e-07, No Iterations 5
time step continuity errors : sum local = 0.000163014, global = -4.66996e-06
GAMG:  Solving for p, Initial residual = 4.05996e-06, Final residual = 9.79584e-07, No Iterations 4
time step continuity errors : sum local = 0.000164594, global = -2.25196e-06, cumulative = -6.72788e-05
ExecutionTime = 13.9598 s  ClockTime = 14 s

Courant Number mean: 0.0832195 max: 0.997713
deltaT = 0.0370378
Time = 41.228396s

smoothSolver:  Solving for Ux, Initial residual = 0.00060853, Final residual = 9.78474e-06, No Iterations 4
smoothSolver:  Solving for Uy, Initial residual = 6.90243e-05, Final residual = 7.26238e-06, No Iterations 6
GAMG:  Solving for p, Initial residual = 7.84973e-06, Final residual = 7.28475e-07, No Iterations 7
time step continuity errors : sum local = 0.000122822, global = -2.33673e-06
GAMG:  Solving for p, Initial residual = 6.0201e-06, Final residual = 7.94e-07, No Iterations 6
time step continuity errors : sum local = 0.000133863, global = -2.08807e-06, cumulative = -6.93668e-05
ExecutionTime = 14.3205 s  ClockTime = 14 s

Courant Number mean: 0.0869658 max: 0.988278
deltaT = 0.0374772
Time = 41.265873s

smoothSolver:  Solving for Ux, Initial residual = 0.000300572, Final residual = 9.49222e-06, No Iterations 1
smoothSolver:  Solving for Uy, Initial residual = 6.63099e-05, Final residual = 9.7891e-06, No Iterations 5
GAMG:  Solving for p, Initial residual = 5.64015e-06, Final residual = 9.7077e-07, No Iterations 5
time step continuity errors : sum local = 0.000165955, global = -4.89185e-06
GAMG:  Solving for p, Initial residual = 4.09182e-06, Final residual = 9.97838e-07, No Iterations 4
time step continuity errors : sum local = 0.000170603, global = -2.26757e-06, cumulative = -7.16344e-05
ExecutionTime = 14.6164 s  ClockTime = 15 s

Courant Number mean: 0.0834123 max: 0.997042
deltaT = 0.0375883
Time = 41.303462s

smoothSolver:  Solving for Ux, Initial residual = 0.000604334, Final residual = 7.19436e-06, No Iterations 5
smoothSolver:  Solving for Uy, Initial residual = 6.76054e-05, Final residual = 7.31392e-06, No Iterations 6
GAMG:  Solving for p, Initial residual = 7.97836e-06, Final residual = 7.56351e-07, No Iterations 7
time step continuity errors : sum local = 0.000129863, global = -2.11019e-06
GAMG:  Solving for p, Initial residual = 6.15181e-06, Final residual = 8.19803e-07, No Iterations 6
time step continuity errors : sum local = 0.00014075, global = -2.16949e-06, cumulative = -7.38039e-05
ExecutionTime = 14.9862 s  ClockTime = 15 s

Courant Number mean: 0.0871679 max: 0.987325
deltaT = 0.0380709
Time = 41.341532s

smoothSolver:  Solving for Ux, Initial residual = 0.000307549, Final residual = 7.17622e-06, No Iterations 2
smoothSolver:  Solving for Uy, Initial residual = 6.5857e-05, Final residual = 9.92681e-06, No Iterations 5
GAMG:  Solving for p, Initial residual = 5.9089e-06, Final residual = 7.84933e-07, No Iterations 6
time step continuity errors : sum local = 0.000136726, global = -3.21959e-06
GAMG:  Solving for p, Initial residual = 3.94202e-06, Final residual = 8.8644e-07, No Iterations 4
time step continuity errors : sum local = 0.000154432, global = -1.81472e-06, cumulative = -7.56186e-05
ExecutionTime = 15.3004 s  ClockTime = 15 s

Courant Number mean: 0.0840212 max: 0.99413
deltaT = 0.0382957
Time = 41.379828s

smoothSolver:  Solving for Ux, Initial residual = 0.000663384, Final residual = 8.20247e-06, No Iterations 6
smoothSolver:  Solving for Uy, Initial residual = 6.19962e-05, Final residual = 9.5946e-06, No Iterations 5
GAMG:  Solving for p, Initial residual = 9.36953e-06, Final residual = 7.65142e-07, No Iterations 7
time step continuity errors : sum local = 0.000134407, global = -2.48817e-06
GAMG:  Solving for p, Initial residual = 8.16576e-06, Final residual = 6.98227e-07, No Iterations 6
time step continuity errors : sum local = 0.000122649, global = -1.95929e-06, cumulative = -7.75779e-05
ExecutionTime = 15.6727 s  ClockTime = 16 s

Courant Number mean: 0.0871648 max: 0.975177
deltaT = 0.0392705
Time = 41.419099s

smoothSolver:  Solving for Ux, Initial residual = 0.000337075, Final residual = 9.02322e-06, No Iterations 1
smoothSolver:  Solving for Uy, Initial residual = 7.03108e-05, Final residual = 8.04824e-06, No Iterations 6
GAMG:  Solving for p, Initial residual = 5.38548e-06, Final residual = 8.76375e-07, No Iterations 5
time step continuity errors : sum local = 0.00015861, global = -4.89032e-06
GAMG:  Solving for p, Initial residual = 3.90463e-06, Final residual = 9.90693e-07, No Iterations 4
time step continuity errors : sum local = 0.000179321, global = -2.34546e-06, cumulative = -7.99233e-05
ExecutionTime = 15.9686 s  ClockTime = 16 s

Courant Number mean: 0.0851994 max: 0.994823
deltaT = 0.0394749
Time = 41.458574s

smoothSolver:  Solving for Ux, Initial residual = 0.000615289, Final residual = 7.42998e-06, No Iterations 5
smoothSolver:  Solving for Uy, Initial residual = 6.32592e-05, Final residual = 7.40945e-06, No Iterations 6
GAMG:  Solving for p, Initial residual = 7.77135e-06, Final residual = 7.50077e-07, No Iterations 7
time step continuity errors : sum local = 0.000136629, global = -2.26669e-06
GAMG:  Solving for p, Initial residual = 6.06939e-06, Final residual = 8.10623e-07, No Iterations 6
time step continuity errors : sum local = 0.00014765, global = -2.27054e-06, cumulative = -8.21939e-05
ExecutionTime = 16.3287 s  ClockTime = 16 s

Courant Number mean: 0.0891135 max: 1.00238
deltaT = 0.0393811
Time = 41.497955s

smoothSolver:  Solving for Ux, Initial residual = 0.000310518, Final residual = 9.94319e-06, No Iterations 1
smoothSolver:  Solving for Uy, Initial residual = 6.50763e-05, Final residual = 7.50661e-06, No Iterations 6
GAMG:  Solving for p, Initial residual = 6.11749e-06, Final residual = 7.7227e-07, No Iterations 6
time step continuity errors : sum local = 0.00014021, global = -3.31797e-06
GAMG:  Solving for p, Initial residual = 4.26687e-06, Final residual = 8.78536e-07, No Iterations 4
time step continuity errors : sum local = 0.000159529, global = -1.86273e-06, cumulative = -8.40566e-05
ExecutionTime = 16.667 s  ClockTime = 17 s

Courant Number mean: 0.0843761 max: 0.967919
deltaT = 0.0406863
Time = 41.538641s

smoothSolver:  Solving for Ux, Initial residual = 0.00073423, Final residual = 9.95306e-06, No Iterations 6
smoothSolver:  Solving for Uy, Initial residual = 6.0473e-05, Final residual = 7.42368e-06, No Iterations 6
GAMG:  Solving for p, Initial residual = 9.62849e-06, Final residual = 7.68123e-07, No Iterations 7
time step continuity errors : sum local = 0.000145124, global = -2.71968e-06
GAMG:  Solving for p, Initial residual = 8.39727e-06, Final residual = 7.41679e-07, No Iterations 6
time step continuity errors : sum local = 0.000140123, global = -2.22053e-06, cumulative = -8.62771e-05
ExecutionTime = 17.0487 s  ClockTime = 17 s

Courant Number mean: 0.0900579 max: 1.00112
deltaT = 0.040641
Time = 41.579282s

smoothSolver:  Solving for Ux, Initial residual = 0.000320615, Final residual = 9.18958e-06, No Iterations 1
smoothSolver:  Solving for Uy, Initial residual = 6.84218e-05, Final residual = 8.32136e-06, No Iterations 6
GAMG:  Solving for p, Initial residual = 5.8718e-06, Final residual = 9.6657e-07, No Iterations 5
time step continuity errors : sum local = 0.0001823, global = -5.41399e-06
GAMG:  Solving for p, Initial residual = 4.25782e-06, Final residual = 7.33547e-07, No Iterations 5
time step continuity errors : sum local = 0.000138368, global = -2.12531e-06, cumulative = -8.84025e-05
ExecutionTime = 17.3602 s  ClockTime = 17 s

Courant Number mean: 0.0865737 max: 1.02204
deltaT = 0.0397644
Time = 41.619046s

smoothSolver:  Solving for Ux, Initial residual = 0.00028342, Final residual = 9.16804e-06, No Iterations 3
smoothSolver:  Solving for Uy, Initial residual = 7.89935e-05, Final residual = 9.29768e-06, No Iterations 6
GAMG:  Solving for p, Initial residual = 8.42061e-06, Final residual = 7.29608e-07, No Iterations 7
time step continuity errors : sum local = 0.00013424, global = -3.82987e-06
GAMG:  Solving for p, Initial residual = 6.88017e-06, Final residual = 8.23168e-07, No Iterations 6
time step continuity errors : sum local = 0.000151446, global = -1.91438e-06, cumulative = -9.03168e-05
ExecutionTime = 17.7277 s  ClockTime = 18 s

Courant Number mean: 0.0866397 max: 0.965087
deltaT = 0.0412029
Time = 41.660249s

smoothSolver:  Solving for Ux, Initial residual = 0.000660264, Final residual = 9.04433e-06, No Iterations 4
smoothSolver:  Solving for Uy, Initial residual = 6.32154e-05, Final residual = 7.88382e-06, No Iterations 6
GAMG:  Solving for p, Initial residual = 6.22118e-06, Final residual = 8.10088e-07, No Iterations 5
time step continuity errors : sum local = 0.000155457, global = -4.69754e-06
GAMG:  Solving for p, Initial residual = 4.86871e-06, Final residual = 8.61393e-07, No Iterations 5
time step continuity errors : sum local = 0.00016532, global = -2.45619e-06, cumulative = -9.2773e-05
ExecutionTime = 18.0449 s  ClockTime = 18 s

Courant Number mean: 0.0872683 max: 0.991446
deltaT = 0.0415584
Time = 41.701808s

smoothSolver:  Solving for Ux, Initial residual = 0.000468058, Final residual = 7.76949e-06, No Iterations 5
smoothSolver:  Solving for Uy, Initial residual = 6.70419e-05, Final residual = 8.47934e-06, No Iterations 6
GAMG:  Solving for p, Initial residual = 8.97636e-06, Final residual = 9.35269e-07, No Iterations 7
time step continuity errors : sum local = 0.00018121, global = -3.92468e-06
GAMG:  Solving for p, Initial residual = 7.91189e-06, Final residual = 8.58472e-07, No Iterations 6
time step continuity errors : sum local = 0.000166323, global = -2.55554e-06, cumulative = -9.53286e-05
ExecutionTime = 18.4088 s  ClockTime = 18 s

Courant Number mean: 0.0911834 max: 1.01562
deltaT = 0.0409192
Time = 41.742727s

smoothSolver:  Solving for Ux, Initial residual = 0.000373048, Final residual = 8.89935e-06, No Iterations 2
smoothSolver:  Solving for Uy, Initial residual = 6.45705e-05, Final residual = 8.01821e-06, No Iterations 6
GAMG:  Solving for p, Initial residual = 6.50298e-06, Final residual = 7.50929e-07, No Iterations 6
time step continuity errors : sum local = 0.000142765, global = -3.23679e-06
GAMG:  Solving for p, Initial residual = 4.69177e-06, Final residual = 7.52525e-07, No Iterations 4
time step continuity errors : sum local = 0.000143091, global = -1.90417e-06, cumulative = -9.72327e-05
ExecutionTime = 18.7285 s  ClockTime = 19 s

Courant Number mean: 0.0854698 max: 0.940689
deltaT = 0.0434992
Time = 41.786226s

smoothSolver:  Solving for Ux, Initial residual = 0.000750568, Final residual = 9.75963e-06, No Iterations 6
smoothSolver:  Solving for Uy, Initial residual = 6.40122e-05, Final residual = 8.60895e-06, No Iterations 6
GAMG:  Solving for p, Initial residual = 8.93201e-06, Final residual = 7.6411e-07, No Iterations 7
time step continuity errors : sum local = 0.000156493, global = -2.86822e-06
GAMG:  Solving for p, Initial residual = 7.86384e-06, Final residual = 7.28511e-07, No Iterations 6
time step continuity errors : sum local = 0.000149197, global = -2.33362e-06, cumulative = -9.95663e-05
ExecutionTime = 19.1009 s  ClockTime = 19 s

Courant Number mean: 0.0937898 max: 1.03152
deltaT = 0.0421701
Time = 41.828396s

smoothSolver:  Solving for Ux, Initial residual = 0.000335381, Final residual = 9.09619e-06, No Iterations 1
smoothSolver:  Solving for Uy, Initial residual = 6.57427e-05, Final residual = 8.54143e-06, No Iterations 6
GAMG:  Solving for p, Initial residual = 5.71388e-06, Final residual = 9.20302e-07, No Iterations 5
time step continuity errors : sum local = 0.000181585, global = -5.51574e-06
GAMG:  Solving for p, Initial residual = 4.15631e-06, Final residual = 7.24073e-07, No Iterations 5
time step continuity errors : sum local = 0.000142884, global = -2.18274e-06, cumulative = -0.000101749
ExecutionTime = 19.4129 s  ClockTime = 19 s

Courant Number mean: 0.087713 max: 1.00144
deltaT = 0.0421096
Time = 41.870506s

smoothSolver:  Solving for Ux, Initial residual = 0.000284639, Final residual = 9.39735e-06, No Iterations 3
smoothSolver:  Solving for Uy, Initial residual = 7.74388e-05, Final residual = 9.9177e-06, No Iterations 6
GAMG:  Solving for p, Initial residual = 8.36785e-06, Final residual = 7.27108e-07, No Iterations 7
time step continuity errors : sum local = 0.000143414, global = -3.97483e-06
GAMG:  Solving for p, Initial residual = 6.89225e-06, Final residual = 8.25993e-07, No Iterations 6
time step continuity errors : sum local = 0.000162909, global = -2.0528e-06, cumulative = -0.000103802
ExecutionTime = 19.7762 s  ClockTime = 20 s

Courant Number mean: 0.0895713 max: 0.98784
deltaT = 0.0426279
Time = 41.913134s

smoothSolver:  Solving for Ux, Initial residual = 0.000667476, Final residual = 9.38035e-06, No Iterations 4
smoothSolver:  Solving for Uy, Initial residual = 6.19981e-05, Final residual = 8.19722e-06, No Iterations 6
GAMG:  Solving for p, Initial residual = 6.30916e-06, Final residual = 8.11966e-07, No Iterations 5
time step continuity errors : sum local = 0.000162429, global = -4.89702e-06
GAMG:  Solving for p, Initial residual = 4.95169e-06, Final residual = 8.72234e-07, No Iterations 5
time step continuity errors : sum local = 0.000174504, global = -2.52413e-06, cumulative = -0.000106326
ExecutionTime = 20.0931 s  ClockTime = 20 s

Courant Number mean: 0.0881872 max: 0.970679
deltaT = 0.0439156
Time = 41.957049s

smoothSolver:  Solving for Ux, Initial residual = 0.000461231, Final residual = 8.32058e-06, No Iterations 5
smoothSolver:  Solving for Uy, Initial residual = 6.6447e-05, Final residual = 9.11451e-06, No Iterations 6
GAMG:  Solving for p, Initial residual = 9.32226e-06, Final residual = 9.75469e-07, No Iterations 7
time step continuity errors : sum local = 0.000201897, global = -3.81223e-06
GAMG:  Solving for p, Initial residual = 8.2808e-06, Final residual = 9.00878e-07, No Iterations 6
time step continuity errors : sum local = 0.000186449, global = -2.78834e-06, cumulative = -0.000109114
ExecutionTime = 20.4607 s  ClockTime = 20 s

Courant Number mean: 0.094344 max: 1.04468
deltaT = 0.0420373
Time = 41.999087s

smoothSolver:  Solving for Ux, Initial residual = 0.000375492, Final residual = 9.17014e-06, No Iterations 2
smoothSolver:  Solving for Uy, Initial residual = 6.31805e-05, Final residual = 8.22422e-06, No Iterations 6
GAMG:  Solving for p, Initial residual = 6.88695e-06, Final residual = 7.8035e-07, No Iterations 6
time step continuity errors : sum local = 0.000153366, global = -3.56316e-06
GAMG:  Solving for p, Initial residual = 5.00895e-06, Final residual = 7.86571e-07, No Iterations 4
time step continuity errors : sum local = 0.000154615, global = -1.93641e-06, cumulative = -0.000111051
ExecutionTime = 21.2782 s  ClockTime = 21 s

Courant Number mean: 0.0858037 max: 0.911504
deltaT = 0.0461186
Time = 42.045205s

smoothSolver:  Solving for Ux, Initial residual = 0.000798581, Final residual = 9.0104e-06, No Iterations 7
smoothSolver:  Solving for Uy, Initial residual = 6.34467e-05, Final residual = 9.28517e-06, No Iterations 6
GAMG:  Solving for p, Initial residual = 9.80015e-06, Final residual = 8.22276e-07, No Iterations 7
time step continuity errors : sum local = 0.000180637, global = -2.6713e-06
GAMG:  Solving for p, Initial residual = 8.70494e-06, Final residual = 7.89731e-07, No Iterations 6
time step continuity errors : sum local = 0.000173479, global = -2.64331e-06, cumulative = -0.000113694
ExecutionTime = 21.6511 s  ClockTime = 22 s

Courant Number mean: 0.0975807 max: 1.06605
deltaT = 0.0432611
Time = 42.088466s

smoothSolver:  Solving for Ux, Initial residual = 0.000333933, Final residual = 7.41308e-06, No Iterations 2
smoothSolver:  Solving for Uy, Initial residual = 6.4542e-05, Final residual = 8.77077e-06, No Iterations 6
GAMG:  Solving for p, Initial residual = 6.38788e-06, Final residual = 7.80968e-07, No Iterations 6
time step continuity errors : sum local = 0.000158866, global = -3.80019e-06
GAMG:  Solving for p, Initial residual = 4.56822e-06, Final residual = 8.5538e-07, No Iterations 4
time step continuity errors : sum local = 0.000174032, global = -2.00688e-06, cumulative = -0.000115701
ExecutionTime = 21.9698 s  ClockTime = 22 s

Courant Number mean: 0.0874063 max: 0.905803
deltaT = 0.0477599
Time = 42.136226s

smoothSolver:  Solving for Ux, Initial residual = 0.000726469, Final residual = 9.54078e-06, No Iterations 7
smoothSolver:  Solving for Uy, Initial residual = 6.12261e-05, Final residual = 9.45746e-06, No Iterations 6
GAMG:  Solving for p, Initial residual = 1.05454e-05, Final residual = 8.42621e-07, No Iterations 7
time step continuity errors : sum local = 0.000192934, global = -4.00431e-06
GAMG:  Solving for p, Initial residual = 9.4472e-06, Final residual = 8.1617e-07, No Iterations 6
time step continuity errors : sum local = 0.000186867, global = -2.86859e-06, cumulative = -0.00011857
ExecutionTime = 22.3482 s  ClockTime = 22 s

Courant Number mean: 0.100269 max: 1.08853
deltaT = 0.0438757
Time = 42.180102s

smoothSolver:  Solving for Ux, Initial residual = 0.000330841, Final residual = 8.03054e-06, No Iterations 2
smoothSolver:  Solving for Uy, Initial residual = 6.43844e-05, Final residual = 8.95574e-06, No Iterations 6
GAMG:  Solving for p, Initial residual = 6.74601e-06, Final residual = 8.22805e-07, No Iterations 6
time step continuity errors : sum local = 0.000170259, global = -3.84088e-06
GAMG:  Solving for p, Initial residual = 4.80297e-06, Final residual = 9.08651e-07, No Iterations 4
time step continuity errors : sum local = 0.000188053, global = -2.0721e-06, cumulative = -0.000120642
ExecutionTime = 22.6662 s  ClockTime = 23 s

Courant Number mean: 0.0878289 max: 0.882757
deltaT = 0.049703
Time = 42.229805s

smoothSolver:  Solving for Ux, Initial residual = 0.000760162, Final residual = 8.57171e-06, No Iterations 8
smoothSolver:  Solving for Uy, Initial residual = 6.08043e-05, Final residual = 9.939e-06, No Iterations 6
GAMG:  Solving for p, Initial residual = 1.16421e-05, Final residual = 9.10777e-07, No Iterations 7
time step continuity errors : sum local = 0.000218371, global = -4.22077e-06
GAMG:  Solving for p, Initial residual = 1.05154e-05, Final residual = 8.85856e-07, No Iterations 6
time step continuity errors : sum local = 0.000212381, global = -3.13114e-06, cumulative = -0.000123773
ExecutionTime = 23.0459 s  ClockTime = 23 s

Courant Number mean: 0.10392 max: 1.12217
deltaT = 0.0442918
Time = 42.274097s

smoothSolver:  Solving for Ux, Initial residual = 0.00032865, Final residual = 8.73812e-06, No Iterations 2
smoothSolver:  Solving for Uy, Initial residual = 6.3827e-05, Final residual = 9.03886e-06, No Iterations 6
GAMG:  Solving for p, Initial residual = 7.41828e-06, Final residual = 8.92999e-07, No Iterations 6
time step continuity errors : sum local = 0.000186757, global = -4.10739e-06
GAMG:  Solving for p, Initial residual = 5.29408e-06, Final residual = 9.87695e-07, No Iterations 4
time step continuity errors : sum local = 0.000206595, global = -2.07741e-06, cumulative = -0.00012585
ExecutionTime = 23.3621 s  ClockTime = 23 s

Courant Number mean: 0.0880643 max: 0.849901
deltaT = 0.052114
Time = 42.326211s

smoothSolver:  Solving for Ux, Initial residual = 0.000826905, Final residual = 8.56107e-06, No Iterations 9
smoothSolver:  Solving for Uy, Initial residual = 6.06021e-05, Final residual = 8.2026e-06, No Iterations 7
GAMG:  Solving for p, Initial residual = 1.34424e-05, Final residual = 1.05865e-06, No Iterations 7
time step continuity errors : sum local = 0.000268291, global = -3.26371e-06
GAMG:  Solving for p, Initial residual = 1.22563e-05, Final residual = 7.93132e-07, No Iterations 7
time step continuity errors : sum local = 0.000200984, global = -2.23164e-06, cumulative = -0.000128082
ExecutionTime = 23.7641 s  ClockTime = 24 s

Courant Number mean: 0.10712 max: 1.11615
deltaT = 0.046691
Time = 42.372902s

smoothSolver:  Solving for Ux, Initial residual = 0.000639824, Final residual = 8.62006e-06, No Iterations 6
smoothSolver:  Solving for Uy, Initial residual = 7.8664e-05, Final residual = 9.11482e-06, No Iterations 7
GAMG:  Solving for p, Initial residual = 1.1059e-05, Final residual = 9.27995e-07, No Iterations 7
time step continuity errors : sum local = 0.00020659, global = -6.43086e-06
GAMG:  Solving for p, Initial residual = 9.9897e-06, Final residual = 7.89737e-07, No Iterations 7
time step continuity errors : sum local = 0.000175834, global = -2.48867e-06, cumulative = -0.00013057
ExecutionTime = 24.1623 s  ClockTime = 24 s

Courant Number mean: 0.0929863 max: 0.8751
deltaT = 0.0533551
Time = 42.426257s

smoothSolver:  Solving for Ux, Initial residual = 0.000461017, Final residual = 8.69199e-06, No Iterations 6
smoothSolver:  Solving for Uy, Initial residual = 7.4529e-05, Final residual = 8.14284e-06, No Iterations 8
GAMG:  Solving for p, Initial residual = 1.09575e-05, Final residual = 7.56769e-07, No Iterations 8
time step continuity errors : sum local = 0.000197163, global = -2.93048e-06
GAMG:  Solving for p, Initial residual = 8.24928e-06, Final residual = 8.32342e-07, No Iterations 7
time step continuity errors : sum local = 0.000216832, global = -2.16507e-06, cumulative = -0.000132736
ExecutionTime = 24.57 s  ClockTime = 25 s

Courant Number mean: 0.1094 max: 1.14262
deltaT = 0.0466954
Time = 42.472952s

smoothSolver:  Solving for Ux, Initial residual = 0.000620224, Final residual = 9.46479e-06, No Iterations 3
smoothSolver:  Solving for Uy, Initial residual = 6.37546e-05, Final residual = 9.67278e-06, No Iterations 6
GAMG:  Solving for p, Initial residual = 6.01935e-06, Final residual = 9.09876e-07, No Iterations 4
time step continuity errors : sum local = 0.000202655, global = -4.73868e-06
GAMG:  Solving for p, Initial residual = 4.28752e-06, Final residual = 8.57076e-07, No Iterations 4
time step continuity errors : sum local = 0.000190917, global = -2.43916e-06, cumulative = -0.000135175
ExecutionTime = 24.8587 s  ClockTime = 25 s

Courant Number mean: 0.0937313 max: 0.970932
deltaT = 0.0480934
Time = 42.521046s

smoothSolver:  Solving for Ux, Initial residual = 0.00026542, Final residual = 7.6059e-06, No Iterations 2
smoothSolver:  Solving for Uy, Initial residual = 6.40027e-05, Final residual = 9.92488e-06, No Iterations 6
GAMG:  Solving for p, Initial residual = 8.7122e-06, Final residual = 7.77313e-07, No Iterations 6
time step continuity errors : sum local = 0.000179262, global = -5.86476e-06
GAMG:  Solving for p, Initial residual = 6.59577e-06, Final residual = 8.1423e-07, No Iterations 5
time step continuity errors : sum local = 0.000187765, global = -2.92435e-06, cumulative = -0.000138099
ExecutionTime = 25.1921 s  ClockTime = 25 s

Courant Number mean: 0.0990633 max: 1.06234
deltaT = 0.045271
Time = 42.566317s

smoothSolver:  Solving for Ux, Initial residual = 0.000467644, Final residual = 8.76242e-06, No Iterations 4
smoothSolver:  Solving for Uy, Initial residual = 6.26209e-05, Final residual = 9.07678e-06, No Iterations 6
GAMG:  Solving for p, Initial residual = 7.55095e-06, Final residual = 9.83622e-07, No Iterations 6
time step continuity errors : sum local = 0.000211632, global = -7.93226e-06
GAMG:  Solving for p, Initial residual = 5.02482e-06, Final residual = 8.3468e-07, No Iterations 5
time step continuity errors : sum local = 0.000179603, global = -2.64154e-06, cumulative = -0.000140741
ExecutionTime = 25.5286 s  ClockTime = 26 s

Courant Number mean: 0.0905943 max: 0.944323
deltaT = 0.0479402
Time = 42.614257s

smoothSolver:  Solving for Ux, Initial residual = 0.000278096, Final residual = 8.05156e-06, No Iterations 3
smoothSolver:  Solving for Uy, Initial residual = 7.08231e-05, Final residual = 8.37922e-06, No Iterations 7
GAMG:  Solving for p, Initial residual = 8.53878e-06, Final residual = 8.63503e-07, No Iterations 6
time step continuity errors : sum local = 0.000198587, global = -2.51488e-06
GAMG:  Solving for p, Initial residual = 6.46702e-06, Final residual = 7.89356e-07, No Iterations 4
time step continuity errors : sum local = 0.000181517, global = -2.74371e-06, cumulative = -0.000143484
ExecutionTime = 25.8578 s  ClockTime = 26 s

Courant Number mean: 0.100244 max: 1.05969
deltaT = 0.0452399
Time = 42.659497s

smoothSolver:  Solving for Ux, Initial residual = 0.000241441, Final residual = 7.47988e-06, No Iterations 3
smoothSolver:  Solving for Uy, Initial residual = 6.06594e-05, Final residual = 8.77702e-06, No Iterations 6
GAMG:  Solving for p, Initial residual = 8.35572e-06, Final residual = 6.7795e-07, No Iterations 7
time step continuity errors : sum local = 0.000145577, global = -3.05025e-06
GAMG:  Solving for p, Initial residual = 6.95672e-06, Final residual = 7.91486e-07, No Iterations 6
time step continuity errors : sum local = 0.00016999, global = -1.99466e-06, cumulative = -0.000145479
ExecutionTime = 26.2289 s  ClockTime = 26 s

Courant Number mean: 0.0905613 max: 0.875795
deltaT = 0.0516558
Time = 42.711152s

smoothSolver:  Solving for Ux, Initial residual = 0.000559689, Final residual = 7.82184e-06, No Iterations 4
smoothSolver:  Solving for Uy, Initial residual = 6.61903e-05, Final residual = 8.76031e-06, No Iterations 7
GAMG:  Solving for p, Initial residual = 7.28909e-06, Final residual = 9.27746e-07, No Iterations 6
time step continuity errors : sum local = 0.000233049, global = -5.83356e-06
GAMG:  Solving for p, Initial residual = 5.1574e-06, Final residual = 7.255e-07, No Iterations 5
time step continuity errors : sum local = 0.000182236, global = -3.00232e-06, cumulative = -0.000148481
ExecutionTime = 26.5689 s  ClockTime = 27 s

Courant Number mean: 0.106637 max: 1.1441
deltaT = 0.0451497
Time = 42.756302s

smoothSolver:  Solving for Ux, Initial residual = 0.000756334, Final residual = 9.78135e-06, No Iterations 5
smoothSolver:  Solving for Uy, Initial residual = 6.59999e-05, Final residual = 9.74397e-06, No Iterations 6
GAMG:  Solving for p, Initial residual = 7.44726e-06, Final residual = 8.25996e-07, No Iterations 6
time step continuity errors : sum local = 0.000177277, global = -6.10266e-06
GAMG:  Solving for p, Initial residual = 5.43936e-06, Final residual = 7.75834e-07, No Iterations 4
time step continuity errors : sum local = 0.000166531, global = -2.02532e-06, cumulative = -0.000150507
ExecutionTime = 26.8956 s  ClockTime = 27 s

Courant Number mean: 0.0901188 max: 0.878564
deltaT = 0.0513904
Time = 42.807693s

smoothSolver:  Solving for Ux, Initial residual = 0.000640008, Final residual = 8.84907e-06, No Iterations 7
smoothSolver:  Solving for Uy, Initial residual = 6.72381e-05, Final residual = 8.8295e-06, No Iterations 7
GAMG:  Solving for p, Initial residual = 1.03878e-05, Final residual = 9.41847e-07, No Iterations 7
time step continuity errors : sum local = 0.000235263, global = -1.14839e-06
GAMG:  Solving for p, Initial residual = 9.2853e-06, Final residual = 9.24164e-07, No Iterations 6
time step continuity errors : sum local = 0.000230823, global = -3.47262e-06, cumulative = -0.000153979
ExecutionTime = 27.2734 s  ClockTime = 27 s

Courant Number mean: 0.107357 max: 1.15228
deltaT = 0.0445989
Time = 42.852291s

smoothSolver:  Solving for Ux, Initial residual = 0.000343138, Final residual = 7.9087e-06, No Iterations 3
smoothSolver:  Solving for Uy, Initial residual = 6.12688e-05, Final residual = 8.85551e-06, No Iterations 6
GAMG:  Solving for p, Initial residual = 7.61055e-06, Final residual = 9.35668e-07, No Iterations 6
time step continuity errors : sum local = 0.000197526, global = -5.22229e-06
GAMG:  Solving for p, Initial residual = 5.4291e-06, Final residual = 7.10986e-07, No Iterations 5
time step continuity errors : sum local = 0.000150125, global = -1.84856e-06, cumulative = -0.000155828
ExecutionTime = 27.6046 s  ClockTime = 28 s

Courant Number mean: 0.0894363 max: 0.911741
deltaT = 0.0489162
Time = 42.901208s

smoothSolver:  Solving for Ux, Initial residual = 0.000280591, Final residual = 7.6424e-06, No Iterations 3
smoothSolver:  Solving for Uy, Initial residual = 7.6694e-05, Final residual = 9.24527e-06, No Iterations 7
GAMG:  Solving for p, Initial residual = 7.75365e-06, Final residual = 8.9584e-07, No Iterations 6
time step continuity errors : sum local = 0.000211465, global = -3.06243e-06
GAMG:  Solving for p, Initial residual = 5.65027e-06, Final residual = 8.66531e-07, No Iterations 4
time step continuity errors : sum local = 0.00020453, global = -2.98486e-06, cumulative = -0.000158813
ExecutionTime = 27.9225 s  ClockTime = 28 s

Courant Number mean: 0.102434 max: 1.09195
deltaT = 0.0447969
Time = 42.946005s

smoothSolver:  Solving for Ux, Initial residual = 0.000257557, Final residual = 9.51144e-06, No Iterations 3
smoothSolver:  Solving for Uy, Initial residual = 5.94188e-05, Final residual = 8.64436e-06, No Iterations 6
GAMG:  Solving for p, Initial residual = 9.1319e-06, Final residual = 7.80866e-07, No Iterations 7
time step continuity errors : sum local = 0.000165915, global = -4.31604e-06
GAMG:  Solving for p, Initial residual = 7.84387e-06, Final residual = 8.62582e-07, No Iterations 6
time step continuity errors : sum local = 0.000183311, global = -2.09223e-06, cumulative = -0.000160905
ExecutionTime = 28.2878 s  ClockTime = 28 s

Courant Number mean: 0.0893846 max: 0.862151
deltaT = 0.0519595
Time = 42.997964s

smoothSolver:  Solving for Ux, Initial residual = 0.000522924, Final residual = 9.21101e-06, No Iterations 4
smoothSolver:  Solving for Uy, Initial residual = 6.65073e-05, Final residual = 8.83156e-06, No Iterations 7
GAMG:  Solving for p, Initial residual = 7.92572e-06, Final residual = 7.19902e-07, No Iterations 7
time step continuity errors : sum local = 0.000182372, global = -3.03798e-06
GAMG:  Solving for p, Initial residual = 6.36537e-06, Final residual = 8.23118e-07, No Iterations 6
time step continuity errors : sum local = 0.000208507, global = -3.05107e-06, cumulative = -0.000163956
ExecutionTime = 29.1588 s  ClockTime = 29 s

Courant Number mean: 0.108724 max: 1.15509
deltaT = 0.044983
Time = 43.042947s

smoothSolver:  Solving for Ux, Initial residual = 0.000314592, Final residual = 7.58916e-06, No Iterations 2
smoothSolver:  Solving for Uy, Initial residual = 5.83946e-05, Final residual = 8.49993e-06, No Iterations 6
GAMG:  Solving for p, Initial residual = 6.59137e-06, Final residual = 8.42252e-07, No Iterations 6
time step continuity errors : sum local = 0.000179901, global = -4.14596e-06
GAMG:  Solving for p, Initial residual = 4.59812e-06, Final residual = 9.84322e-07, No Iterations 4
time step continuity errors : sum local = 0.00021028, global = -2.0937e-06, cumulative = -0.00016605
ExecutionTime = 29.4754 s  ClockTime = 30 s

Courant Number mean: 0.0894475 max: 0.863934
deltaT = 0.0520677
Time = 43.095015s

smoothSolver:  Solving for Ux, Initial residual = 0.000794097, Final residual = 7.9848e-06, No Iterations 9
smoothSolver:  Solving for Uy, Initial residual = 5.95577e-05, Final residual = 8.03333e-06, No Iterations 7
GAMG:  Solving for p, Initial residual = 1.31691e-05, Final residual = 1.02077e-06, No Iterations 7
time step continuity errors : sum local = 0.000259305, global = -3.30546e-06
GAMG:  Solving for p, Initial residual = 1.20132e-05, Final residual = 7.6626e-07, No Iterations 7
time step continuity errors : sum local = 0.000194635, global = -2.12429e-06, cumulative = -0.000168174
ExecutionTime = 29.8763 s  ClockTime = 30 s

Courant Number mean: 0.10726 max: 1.10698
deltaT = 0.0470359
Time = 43.142051s

smoothSolver:  Solving for Ux, Initial residual = 0.000636291, Final residual = 8.3733e-06, No Iterations 6
smoothSolver:  Solving for Uy, Initial residual = 7.87334e-05, Final residual = 9.23889e-06, No Iterations 7
GAMG:  Solving for p, Initial residual = 1.06818e-05, Final residual = 8.9695e-07, No Iterations 7
time step continuity errors : sum local = 0.000201977, global = -6.23636e-06
GAMG:  Solving for p, Initial residual = 9.65847e-06, Final residual = 7.64775e-07, No Iterations 7
time step continuity errors : sum local = 0.000172235, global = -2.48892e-06, cumulative = -0.000170663
ExecutionTime = 30.2615 s  ClockTime = 30 s

Courant Number mean: 0.093793 max: 0.879744
deltaT = 0.0534654
Time = 43.195516s

smoothSolver:  Solving for Ux, Initial residual = 0.000465409, Final residual = 8.47894e-06, No Iterations 6
smoothSolver:  Solving for Uy, Initial residual = 7.48047e-05, Final residual = 8.19318e-06, No Iterations 8
GAMG:  Solving for p, Initial residual = 1.06134e-05, Final residual = 7.32746e-07, No Iterations 8
time step continuity errors : sum local = 0.000191608, global = -3.25811e-06
GAMG:  Solving for p, Initial residual = 7.99101e-06, Final residual = 8.08739e-07, No Iterations 7
time step continuity errors : sum local = 0.000211462, global = -2.05655e-06, cumulative = -0.000172719
ExecutionTime = 30.6729 s  ClockTime = 31 s

Courant Number mean: 0.109893 max: 1.13585
deltaT = 0.0470709
Time = 43.242587s

smoothSolver:  Solving for Ux, Initial residual = 0.000614249, Final residual = 9.52824e-06, No Iterations 3
smoothSolver:  Solving for Uy, Initial residual = 6.35752e-05, Final residual = 9.75629e-06, No Iterations 6
GAMG:  Solving for p, Initial residual = 5.83288e-06, Final residual = 8.90056e-07, No Iterations 4
time step continuity errors : sum local = 0.000200675, global = -4.4961e-06
GAMG:  Solving for p, Initial residual = 4.14759e-06, Final residual = 8.27145e-07, No Iterations 4
time step continuity errors : sum local = 0.000186511, global = -2.47849e-06, cumulative = -0.000175198
ExecutionTime = 30.9623 s  ClockTime = 31 s

Courant Number mean: 0.0946826 max: 0.973684
deltaT = 0.0483431
Time = 43.29093s

smoothSolver:  Solving for Ux, Initial residual = 0.00026951, Final residual = 9.79685e-06, No Iterations 1
smoothSolver:  Solving for Uy, Initial residual = 6.41072e-05, Final residual = 7.64149e-06, No Iterations 7
GAMG:  Solving for p, Initial residual = 8.6126e-06, Final residual = 7.71362e-07, No Iterations 6
time step continuity errors : sum local = 0.000179473, global = -6.46138e-06
GAMG:  Solving for p, Initial residual = 6.61941e-06, Final residual = 7.17556e-07, No Iterations 5
time step continuity errors : sum local = 0.000166945, global = -2.83531e-06, cumulative = -0.000178033
ExecutionTime = 31.299 s  ClockTime = 31 s

Courant Number mean: 0.0994086 max: 1.04907
deltaT = 0.0460821
Time = 43.337012s

smoothSolver:  Solving for Ux, Initial residual = 0.000597349, Final residual = 8.23493e-06, No Iterations 5
smoothSolver:  Solving for Uy, Initial residual = 6.4908e-05, Final residual = 9.67659e-06, No Iterations 6
GAMG:  Solving for p, Initial residual = 7.2854e-06, Final residual = 9.07174e-07, No Iterations 6
time step continuity errors : sum local = 0.000199869, global = -7.21605e-06
GAMG:  Solving for p, Initial residual = 5.05825e-06, Final residual = 7.19964e-07, No Iterations 5
time step continuity errors : sum local = 0.000158635, global = -2.39087e-06, cumulative = -0.000180424
ExecutionTime = 31.6425 s  ClockTime = 32 s

Courant Number mean: 0.0920814 max: 0.947162
deltaT = 0.0486528
Time = 43.385665s

smoothSolver:  Solving for Ux, Initial residual = 0.00029277, Final residual = 7.63787e-06, No Iterations 3
smoothSolver:  Solving for Uy, Initial residual = 7.59532e-05, Final residual = 9.20311e-06, No Iterations 7
GAMG:  Solving for p, Initial residual = 7.484e-06, Final residual = 7.44281e-07, No Iterations 6
time step continuity errors : sum local = 0.000174532, global = -3.27298e-06
GAMG:  Solving for p, Initial residual = 5.68763e-06, Final residual = 6.69786e-07, No Iterations 4
time step continuity errors : sum local = 0.00015705, global = -2.52475e-06, cumulative = -0.000182949
ExecutionTime = 31.962 s  ClockTime = 32 s

Courant Number mean: 0.101057 max: 1.03741
deltaT = 0.0468981
Time = 43.432563s

smoothSolver:  Solving for Ux, Initial residual = 0.000255302, Final residual = 8.1302e-06, No Iterations 2
smoothSolver:  Solving for Uy, Initial residual = 6.08409e-05, Final residual = 9.21038e-06, No Iterations 6
GAMG:  Solving for p, Initial residual = 6.78092e-06, Final residual = 8.19758e-07, No Iterations 6
time step continuity errors : sum local = 0.000184161, global = -3.93443e-06
GAMG:  Solving for p, Initial residual = 4.73114e-06, Final residual = 7.56123e-07, No Iterations 5
time step continuity errors : sum local = 0.00016989, global = -2.16168e-06, cumulative = -0.000185111
ExecutionTime = 32.2914 s  ClockTime = 32 s

Courant Number mean: 0.0952065 max: 1.00065
deltaT = 0.0468676
Time = 43.479431s

smoothSolver:  Solving for Ux, Initial residual = 0.000273068, Final residual = 9.44122e-06, No Iterations 1
smoothSolver:  Solving for Uy, Initial residual = 6.61265e-05, Final residual = 9.87903e-06, No Iterations 6
GAMG:  Solving for p, Initial residual = 7.20615e-06, Final residual = 7.56944e-07, No Iterations 6
time step continuity errors : sum local = 0.000170202, global = -4.13512e-06
GAMG:  Solving for p, Initial residual = 5.43049e-06, Final residual = 8.59914e-07, No Iterations 4
time step continuity errors : sum local = 0.000193349, global = -2.69712e-06, cumulative = -0.000187808
ExecutionTime = 32.6113 s  ClockTime = 33 s

Courant Number mean: 0.0992719 max: 1.04785
deltaT = 0.0447273
Time = 43.524158s

smoothSolver:  Solving for Ux, Initial residual = 0.000250701, Final residual = 8.23682e-06, No Iterations 3
smoothSolver:  Solving for Uy, Initial residual = 5.74444e-05, Final residual = 8.24938e-06, No Iterations 6
GAMG:  Solving for p, Initial residual = 8.16243e-06, Final residual = 9.45005e-07, No Iterations 6
time step continuity errors : sum local = 0.00020114, global = -4.69189e-06
GAMG:  Solving for p, Initial residual = 5.63815e-06, Final residual = 8.86847e-07, No Iterations 5
time step continuity errors : sum local = 0.000188787, global = -2.30548e-06, cumulative = -0.000190113
ExecutionTime = 32.9426 s  ClockTime = 33 s

Courant Number mean: 0.0925841 max: 1.01723
deltaT = 0.0439697
Time = 43.568128s

smoothSolver:  Solving for Ux, Initial residual = 0.000256929, Final residual = 7.92949e-06, No Iterations 2
smoothSolver:  Solving for Uy, Initial residual = 6.5718e-05, Final residual = 8.93161e-06, No Iterations 6
GAMG:  Solving for p, Initial residual = 8.32366e-06, Final residual = 8.6579e-07, No Iterations 6
time step continuity errors : sum local = 0.000180624, global = -4.81008e-06
GAMG:  Solving for p, Initial residual = 6.18149e-06, Final residual = 9.25429e-07, No Iterations 4
time step continuity errors : sum local = 0.000193054, global = -2.67905e-06, cumulative = -0.000192792
ExecutionTime = 33.2613 s  ClockTime = 33 s

Courant Number mean: 0.0950041 max: 1.01667
deltaT = 0.0432488
Time = 43.611376s

smoothSolver:  Solving for Ux, Initial residual = 0.000241682, Final residual = 9.18096e-06, No Iterations 3
smoothSolver:  Solving for Uy, Initial residual = 5.98821e-05, Final residual = 8.20903e-06, No Iterations 6
GAMG:  Solving for p, Initial residual = 9.10772e-06, Final residual = 7.09857e-07, No Iterations 7
time step continuity errors : sum local = 0.000145244, global = -4.43477e-06
GAMG:  Solving for p, Initial residual = 7.47534e-06, Final residual = 8.24364e-07, No Iterations 6
time step continuity errors : sum local = 0.000168699, global = -2.15721e-06, cumulative = -0.000194949
ExecutionTime = 33.6266 s  ClockTime = 34 s

Courant Number mean: 0.089567 max: 0.906916
deltaT = 0.0476878
Time = 43.659064s

smoothSolver:  Solving for Ux, Initial residual = 0.000592804, Final residual = 9.25849e-06, No Iterations 4
smoothSolver:  Solving for Uy, Initial residual = 6.76844e-05, Final residual = 7.88043e-06, No Iterations 7
GAMG:  Solving for p, Initial residual = 7.52048e-06, Final residual = 9.63637e-07, No Iterations 6
time step continuity errors : sum local = 0.000221286, global = -3.90613e-06
GAMG:  Solving for p, Initial residual = 5.26689e-06, Final residual = 7.48956e-07, No Iterations 5
time step continuity errors : sum local = 0.000171976, global = -2.82946e-06, cumulative = -0.000197779
ExecutionTime = 33.9642 s  ClockTime = 34 s

Courant Number mean: 0.101946 max: 1.0925
deltaT = 0.04365
Time = 43.702714s

smoothSolver:  Solving for Ux, Initial residual = 0.000782071, Final residual = 9.19632e-06, No Iterations 5
smoothSolver:  Solving for Uy, Initial residual = 6.64428e-05, Final residual = 9.36385e-06, No Iterations 6
GAMG:  Solving for p, Initial residual = 7.56318e-06, Final residual = 8.57282e-07, No Iterations 6
time step continuity errors : sum local = 0.000177296, global = -3.89435e-06
GAMG:  Solving for p, Initial residual = 5.52635e-06, Final residual = 7.9208e-07, No Iterations 4
time step continuity errors : sum local = 0.000163837, global = -1.89195e-06, cumulative = -0.000199671
ExecutionTime = 34.286 s  ClockTime = 34 s

Courant Number mean: 0.0901338 max: 0.918288
deltaT = 0.0475341
Time = 43.750248s

smoothSolver:  Solving for Ux, Initial residual = 0.000651382, Final residual = 7.68956e-06, No Iterations 7
smoothSolver:  Solving for Uy, Initial residual = 6.72259e-05, Final residual = 7.786e-06, No Iterations 7
GAMG:  Solving for p, Initial residual = 1.0136e-05, Final residual = 9.04927e-07, No Iterations 7
time step continuity errors : sum local = 0.000207272, global = -3.70058e-06
GAMG:  Solving for p, Initial residual = 9.00303e-06, Final residual = 8.96401e-07, No Iterations 6
time step continuity errors : sum local = 0.000205304, global = -2.99453e-06, cumulative = -0.000202665
ExecutionTime = 34.6684 s  ClockTime = 35 s

Courant Number mean: 0.102352 max: 1.09144
deltaT = 0.0435518
Time = 43.7938s

smoothSolver:  Solving for Ux, Initial residual = 0.00032836, Final residual = 8.5869e-06, No Iterations 2
smoothSolver:  Solving for Uy, Initial residual = 6.24192e-05, Final residual = 8.70437e-06, No Iterations 6
GAMG:  Solving for p, Initial residual = 7.32645e-06, Final residual = 8.89911e-07, No Iterations 6
time step continuity errors : sum local = 0.000183453, global = -4.07911e-06
GAMG:  Solving for p, Initial residual = 5.20329e-06, Final residual = 9.88058e-07, No Iterations 4
time step continuity errors : sum local = 0.00020372, global = -1.98725e-06, cumulative = -0.000204653
ExecutionTime = 34.9852 s  ClockTime = 35 s

Courant Number mean: 0.0887253 max: 0.888552
deltaT = 0.0490143
Time = 43.842814s

smoothSolver:  Solving for Ux, Initial residual = 0.000837674, Final residual = 7.73604e-06, No Iterations 9
smoothSolver:  Solving for Uy, Initial residual = 6.13999e-05, Final residual = 9.8034e-06, No Iterations 6
GAMG:  Solving for p, Initial residual = 1.28207e-05, Final residual = 9.98151e-07, No Iterations 7
time step continuity errors : sum local = 0.000236845, global = -3.04447e-06
GAMG:  Solving for p, Initial residual = 1.16124e-05, Final residual = 9.64102e-07, No Iterations 6
time step continuity errors : sum local = 0.000228747, global = -3.18889e-06, cumulative = -0.000207841
ExecutionTime = 35.3635 s  ClockTime = 35 s

Courant Number mean: 0.105178 max: 1.11916
deltaT = 0.0437956
Time = 43.88661s

smoothSolver:  Solving for Ux, Initial residual = 0.000330552, Final residual = 9.83122e-06, No Iterations 2
smoothSolver:  Solving for Uy, Initial residual = 6.34578e-05, Final residual = 8.9103e-06, No Iterations 6
GAMG:  Solving for p, Initial residual = 8.08461e-06, Final residual = 9.63533e-07, No Iterations 6
time step continuity errors : sum local = 0.000200014, global = -4.52857e-06
GAMG:  Solving for p, Initial residual = 5.78545e-06, Final residual = 7.37908e-07, No Iterations 5
time step continuity errors : sum local = 0.000153206, global = -1.88844e-06, cumulative = -0.00020973
ExecutionTime = 35.7072 s  ClockTime = 36 s

Courant Number mean: 0.0897383 max: 0.911886
deltaT = 0.0480274
Time = 43.934637s

smoothSolver:  Solving for Ux, Initial residual = 0.000272915, Final residual = 9.95003e-06, No Iterations 2
smoothSolver:  Solving for Uy, Initial residual = 7.52301e-05, Final residual = 8.8434e-06, No Iterations 7
GAMG:  Solving for p, Initial residual = 8.06808e-06, Final residual = 9.00065e-07, No Iterations 6
time step continuity errors : sum local = 0.000208741, global = -4.28496e-06
GAMG:  Solving for p, Initial residual = 5.94292e-06, Final residual = 9.03074e-07, No Iterations 4
time step continuity errors : sum local = 0.000209425, global = -2.93754e-06, cumulative = -0.000212667
ExecutionTime = 36.0228 s  ClockTime = 36 s

Courant Number mean: 0.103352 max: 1.08817
deltaT = 0.0441359
Time = 43.978773s

smoothSolver:  Solving for Ux, Initial residual = 0.000242744, Final residual = 9.58489e-06, No Iterations 3
smoothSolver:  Solving for Uy, Initial residual = 5.84302e-05, Final residual = 8.33139e-06, No Iterations 6
GAMG:  Solving for p, Initial residual = 9.37395e-06, Final residual = 7.73823e-07, No Iterations 7
time step continuity errors : sum local = 0.000162311, global = -5.06338e-06
GAMG:  Solving for p, Initial residual = 7.91981e-06, Final residual = 8.6976e-07, No Iterations 6
time step continuity errors : sum local = 0.000182463, global = -2.19515e-06, cumulative = -0.000214863
ExecutionTime = 36.8879 s  ClockTime = 37 s

Courant Number mean: 0.0904206 max: 0.87684
deltaT = 0.0503352
Time = 44.029109s

smoothSolver:  Solving for Ux, Initial residual = 0.000555658, Final residual = 7.94087e-06, No Iterations 5
smoothSolver:  Solving for Uy, Initial residual = 6.72076e-05, Final residual = 8.51651e-06, No Iterations 7
GAMG:  Solving for p, Initial residual = 8.06771e-06, Final residual = 7.33038e-07, No Iterations 7
time step continuity errors : sum local = 0.000179541, global = -3.666e-06
GAMG:  Solving for p, Initial residual = 6.43671e-06, Final residual = 8.38843e-07, No Iterations 6
time step continuity errors : sum local = 0.000205439, global = -3.08216e-06, cumulative = -0.000217945
ExecutionTime = 37.2706 s  ClockTime = 37 s

Courant Number mean: 0.108054 max: 1.13359
deltaT = 0.0444032
Time = 44.073512s

smoothSolver:  Solving for Ux, Initial residual = 0.000312205, Final residual = 7.87722e-06, No Iterations 2
smoothSolver:  Solving for Uy, Initial residual = 5.88925e-05, Final residual = 8.43317e-06, No Iterations 6
GAMG:  Solving for p, Initial residual = 6.7593e-06, Final residual = 8.61783e-07, No Iterations 6
time step continuity errors : sum local = 0.000181958, global = -4.05971e-06
GAMG:  Solving for p, Initial residual = 4.69477e-06, Final residual = 6.9485e-07, No Iterations 5
time step continuity errors : sum local = 0.000146735, global = -1.95873e-06, cumulative = -0.000219903
ExecutionTime = 37.5994 s  ClockTime = 38 s

Courant Number mean: 0.0915671 max: 0.935747
deltaT = 0.0474522
Time = 44.120964s

smoothSolver:  Solving for Ux, Initial residual = 0.000283378, Final residual = 8.63057e-06, No Iterations 2
smoothSolver:  Solving for Uy, Initial residual = 7.31635e-05, Final residual = 8.43628e-06, No Iterations 7
GAMG:  Solving for p, Initial residual = 7.22415e-06, Final residual = 8.00757e-07, No Iterations 6
time step continuity errors : sum local = 0.000183124, global = -5.05363e-06
GAMG:  Solving for p, Initial residual = 5.35006e-06, Final residual = 8.16769e-07, No Iterations 4
time step continuity errors : sum local = 0.000186776, global = -2.79505e-06, cumulative = -0.000222699
ExecutionTime = 37.9153 s  ClockTime = 38 s

Courant Number mean: 0.102114 max: 1.06387
deltaT = 0.0446034
Time = 44.165567s

smoothSolver:  Solving for Ux, Initial residual = 0.000253668, Final residual = 9.33558e-06, No Iterations 3
smoothSolver:  Solving for Uy, Initial residual = 5.83883e-05, Final residual = 8.42581e-06, No Iterations 6
GAMG:  Solving for p, Initial residual = 8.39315e-06, Final residual = 6.8541e-07, No Iterations 7
time step continuity errors : sum local = 0.000145754, global = -2.94308e-06
GAMG:  Solving for p, Initial residual = 7.0638e-06, Final residual = 7.80858e-07, No Iterations 6
time step continuity errors : sum local = 0.000166076, global = -2.15043e-06, cumulative = -0.000224849
ExecutionTime = 38.2783 s  ClockTime = 38 s

Courant Number mean: 0.0918811 max: 0.892956
deltaT = 0.0499503
Time = 44.215518s

smoothSolver:  Solving for Ux, Initial residual = 0.000551192, Final residual = 7.6938e-06, No Iterations 4
smoothSolver:  Solving for Uy, Initial residual = 6.72636e-05, Final residual = 8.42011e-06, No Iterations 7
GAMG:  Solving for p, Initial residual = 7.04658e-06, Final residual = 9.07964e-07, No Iterations 6
time step continuity errors : sum local = 0.000220755, global = -5.91603e-06
GAMG:  Solving for p, Initial residual = 4.95671e-06, Final residual = 6.98936e-07, No Iterations 5
time step continuity errors : sum local = 0.000169927, global = -2.77145e-06, cumulative = -0.00022762
ExecutionTime = 38.6211 s  ClockTime = 39 s

Courant Number mean: 0.106144 max: 1.11076
deltaT = 0.0449693
Time = 44.260487s

smoothSolver:  Solving for Ux, Initial residual = 0.000731093, Final residual = 9.67982e-06, No Iterations 5
smoothSolver:  Solving for Uy, Initial residual = 6.67272e-05, Final residual = 9.83586e-06, No Iterations 6
GAMG:  Solving for p, Initial residual = 7.16121e-06, Final residual = 7.9535e-07, No Iterations 6
time step continuity errors : sum local = 0.000170983, global = -5.60587e-06
GAMG:  Solving for p, Initial residual = 5.22571e-06, Final residual = 7.35568e-07, No Iterations 4
time step continuity errors : sum local = 0.000158148, global = -1.93989e-06, cumulative = -0.00022956
ExecutionTime = 38.9464 s  ClockTime = 39 s

Courant Number mean: 0.0923131 max: 0.901493
deltaT = 0.0498831
Time = 44.31037s

smoothSolver:  Solving for Ux, Initial residual = 0.000614069, Final residual = 7.78559e-06, No Iterations 7
smoothSolver:  Solving for Uy, Initial residual = 6.87854e-05, Final residual = 8.61423e-06, No Iterations 7
GAMG:  Solving for p, Initial residual = 9.7432e-06, Final residual = 8.94775e-07, No Iterations 7
time step continuity errors : sum local = 0.000217279, global = -1.82283e-06
GAMG:  Solving for p, Initial residual = 8.71236e-06, Final residual = 8.70096e-07, No Iterations 6
time step continuity errors : sum local = 0.000211268, global = -3.21599e-06, cumulative = -0.000232776
ExecutionTime = 39.3275 s  ClockTime = 39 s

Courant Number mean: 0.106823 max: 1.11741
deltaT = 0.0446415
Time = 44.355012s

smoothSolver:  Solving for Ux, Initial residual = 0.000346984, Final residual = 9.79377e-06, No Iterations 2
smoothSolver:  Solving for Uy, Initial residual = 6.12795e-05, Final residual = 8.88816e-06, No Iterations 6
GAMG:  Solving for p, Initial residual = 7.07862e-06, Final residual = 8.48497e-07, No Iterations 6
time step continuity errors : sum local = 0.000180311, global = -4.55254e-06
GAMG:  Solving for p, Initial residual = 5.10534e-06, Final residual = 9.3027e-07, No Iterations 4
time step continuity errors : sum local = 0.000197725, global = -1.90308e-06, cumulative = -0.000234679
ExecutionTime = 39.6517 s  ClockTime = 40 s

Courant Number mean: 0.090543 max: 0.86739
deltaT = 0.0514665
Time = 44.406478s

smoothSolver:  Solving for Ux, Initial residual = 0.00080582, Final residual = 8.07045e-06, No Iterations 9
smoothSolver:  Solving for Uy, Initial residual = 6.16518e-05, Final residual = 8.14695e-06, No Iterations 7
GAMG:  Solving for p, Initial residual = 1.26604e-05, Final residual = 1.01002e-06, No Iterations 7
time step continuity errors : sum local = 0.00025435, global = -1.85722e-06
GAMG:  Solving for p, Initial residual = 1.15363e-05, Final residual = 9.88446e-07, No Iterations 6
time step continuity errors : sum local = 0.000248892, global = -3.45347e-06, cumulative = -0.000238133
ExecutionTime = 40.0365 s  ClockTime = 40 s

Courant Number mean: 0.110242 max: 1.15273
deltaT = 0.0446477
Time = 44.451126s

smoothSolver:  Solving for Ux, Initial residual = 0.000333209, Final residual = 8.29842e-06, No Iterations 3
smoothSolver:  Solving for Uy, Initial residual = 6.19626e-05, Final residual = 8.99801e-06, No Iterations 6
GAMG:  Solving for p, Initial residual = 8.33424e-06, Final residual = 7.22061e-07, No Iterations 7
time step continuity errors : sum local = 0.000153518, global = -2.91914e-06
GAMG:  Solving for p, Initial residual = 6.72484e-06, Final residual = 8.9256e-07, No Iterations 6
time step continuity errors : sum local = 0.000189813, global = -1.80125e-06, cumulative = -0.000239934
ExecutionTime = 40.4028 s  ClockTime = 40 s

Courant Number mean: 0.0902154 max: 0.829861
deltaT = 0.0535772
Time = 44.504703s

smoothSolver:  Solving for Ux, Initial residual = 0.000514721, Final residual = 9.28185e-06, No Iterations 4
smoothSolver:  Solving for Uy, Initial residual = 6.26116e-05, Final residual = 8.71041e-06, No Iterations 7
GAMG:  Solving for p, Initial residual = 7.97044e-06, Final residual = 7.56988e-07, No Iterations 7
time step continuity errors : sum local = 0.000199785, global = -3.57256e-06
GAMG:  Solving for p, Initial residual = 6.50604e-06, Final residual = 8.49952e-07, No Iterations 6
[...]
deltaT = 0.0543052
Time = 52.440804s

smoothSolver:  Solving for Ux, Initial residual = 0.000493962, Final residual = 8.88065e-06, No Iterations 5
smoothSolver:  Solving for Uy, Initial residual = 6.28828e-05, Final residual = 9.04029e-06, No Iterations 7
GAMG:  Solving for p, Initial residual = 8.28855e-06, Final residual = 7.9036e-07, No Iterations 7
time step continuity errors : sum local = 0.000217573, global = -2.57649e-06
GAMG:  Solving for p, Initial residual = 6.77604e-06, Final residual = 8.86348e-07, No Iterations 6
time step continuity errors : sum local = 0.000243976, global = -3.24217e-06, cumulative = -0.000639995
ExecutionTime = 101.434 s  ClockTime = 102 s

Courant Number mean: 0.121439 max: 1.18114
deltaT = 0.045977
Time = 52.486781s

smoothSolver:  Solving for Ux, Initial residual = 0.000322988, Final residual = 7.64432e-06, No Iterations 3
smoothSolver:  Solving for Uy, Initial residual = 5.70035e-05, Final residual = 8.72491e-06, No Iterations 6
GAMG:  Solving for p, Initial residual = 7.25272e-06, Final residual = 8.99917e-07, No Iterations 6
time step continuity errors : sum local = 0.000203285, global = -7.84023e-06
GAMG:  Solving for p, Initial residual = 5.03069e-06, Final residual = 7.26163e-07, No Iterations 5
time step continuity errors : sum local = 0.00016406, global = -1.9302e-06, cumulative = -0.000641925
ExecutionTime = 101.768 s  ClockTime = 102 s

Courant Number mean: 0.0996403 max: 0.885146
deltaT = 0.0519428
Time = 52.538723s

smoothSolver:  Solving for Ux, Initial residual = 0.000271947, Final residual = 9.49959e-06, No Iterations 3
smoothSolver:  Solving for Uy, Initial residual = 7.53512e-05, Final residual = 7.89458e-06, No Iterations 8
GAMG:  Solving for p, Initial residual = 8.3114e-06, Final residual = 9.18991e-07, No Iterations 6
time step continuity errors : sum local = 0.000240155, global = 2.45928e-07
GAMG:  Solving for p, Initial residual = 6.24991e-06, Final residual = 9.12756e-07, No Iterations 4
time step continuity errors : sum local = 0.000238498, global = -3.06929e-06, cumulative = -0.000644994
ExecutionTime = 102.1 s  ClockTime = 102 s

Courant Number mean: 0.116539 max: 1.09018
deltaT = 0.0476463
Time = 52.58637s

smoothSolver:  Solving for Ux, Initial residual = 0.000241331, Final residual = 9.43318e-06, No Iterations 4
smoothSolver:  Solving for Uy, Initial residual = 5.67688e-05, Final residual = 9.16709e-06, No Iterations 6
GAMG:  Solving for p, Initial residual = 1.01367e-05, Final residual = 8.21495e-07, No Iterations 7
time step continuity errors : sum local = 0.000193563, global = -6.5542e-06
GAMG:  Solving for p, Initial residual = 8.86085e-06, Final residual = 9.19348e-07, No Iterations 6
time step continuity errors : sum local = 0.000216667, global = -1.67106e-06, cumulative = -0.000646665
ExecutionTime = 102.476 s  ClockTime = 103 s

Courant Number mean: 0.101977 max: 0.871184
deltaT = 0.0546914
Time = 52.641061s

smoothSolver:  Solving for Ux, Initial residual = 0.000548254, Final residual = 8.82943e-06, No Iterations 6
smoothSolver:  Solving for Uy, Initial residual = 6.65292e-05, Final residual = 9.67947e-06, No Iterations 7
GAMG:  Solving for p, Initial residual = 8.98206e-06, Final residual = 8.18556e-07, No Iterations 7
time step continuity errors : sum local = 0.000227534, global = 7.05673e-07
GAMG:  Solving for p, Initial residual = 7.21497e-06, Final residual = 9.33283e-07, No Iterations 6
time step continuity errors : sum local = 0.000259391, global = -3.51448e-06, cumulative = -0.00065018
ExecutionTime = 102.847 s  ClockTime = 103 s

Courant Number mean: 0.123253 max: 1.20078
deltaT = 0.0455464
Time = 52.686607s

smoothSolver:  Solving for Ux, Initial residual = 0.000314962, Final residual = 9.37589e-06, No Iterations 3
smoothSolver:  Solving for Uy, Initial residual = 5.69756e-05, Final residual = 8.61672e-06, No Iterations 6
GAMG:  Solving for p, Initial residual = 7.74976e-06, Final residual = 9.81561e-07, No Iterations 6
time step continuity errors : sum local = 0.000219218, global = -5.93445e-06
GAMG:  Solving for p, Initial residual = 5.37674e-06, Final residual = 7.94547e-07, No Iterations 5
time step continuity errors : sum local = 0.000177488, global = -1.54952e-06, cumulative = -0.000651729
ExecutionTime = 103.183 s  ClockTime = 103 s

Courant Number mean: 0.0993835 max: 0.907097
deltaT = 0.0502111
Time = 52.736819s

smoothSolver:  Solving for Ux, Initial residual = 0.000256783, Final residual = 8.85712e-06, No Iterations 3
smoothSolver:  Solving for Uy, Initial residual = 7.36626e-05, Final residual = 9.42046e-06, No Iterations 7
GAMG:  Solving for p, Initial residual = 8.63003e-06, Final residual = 9.61217e-07, No Iterations 6
time step continuity errors : sum local = 0.000241397, global = -6.81305e-07
GAMG:  Solving for p, Initial residual = 6.40997e-06, Final residual = 9.46861e-07, No Iterations 4
time step continuity errors : sum local = 0.000237767, global = -2.99447e-06, cumulative = -0.000654724
ExecutionTime = 103.504 s  ClockTime = 104 s

Courant Number mean: 0.113619 max: 1.0753
deltaT = 0.0466952
Time = 52.783514s

smoothSolver:  Solving for Ux, Initial residual = 0.00023724, Final residual = 9.3297e-06, No Iterations 4
smoothSolver:  Solving for Uy, Initial residual = 5.78502e-05, Final residual = 9.07938e-06, No Iterations 6
GAMG:  Solving for p, Initial residual = 1.04888e-05, Final residual = 8.54633e-07, No Iterations 7
time step continuity errors : sum local = 0.000196602, global = -6.21031e-06
GAMG:  Solving for p, Initial residual = 9.1448e-06, Final residual = 9.50487e-07, No Iterations 6
time step continuity errors : sum local = 0.000218699, global = -1.72409e-06, cumulative = -0.000656448
ExecutionTime = 103.87 s  ClockTime = 104 s

Courant Number mean: 0.10077 max: 0.874537
deltaT = 0.0533942
Time = 52.836908s

smoothSolver:  Solving for Ux, Initial residual = 0.000561133, Final residual = 8.79621e-06, No Iterations 6
smoothSolver:  Solving for Uy, Initial residual = 6.66523e-05, Final residual = 9.3716e-06, No Iterations 7
GAMG:  Solving for p, Initial residual = 9.19701e-06, Final residual = 8.38184e-07, No Iterations 7
time step continuity errors : sum local = 0.000226547, global = 2.31885e-07
GAMG:  Solving for p, Initial residual = 7.37955e-06, Final residual = 9.5573e-07, No Iterations 6
time step continuity errors : sum local = 0.000258284, global = -3.40527e-06, cumulative = -0.000659853
ExecutionTime = 104.249 s  ClockTime = 104 s

Courant Number mean: 0.121352 max: 1.19433
deltaT = 0.0447063
Time = 52.881614s

smoothSolver:  Solving for Ux, Initial residual = 0.000312802, Final residual = 9.18089e-06, No Iterations 3
smoothSolver:  Solving for Uy, Initial residual = 5.73525e-05, Final residual = 8.44242e-06, No Iterations 6
GAMG:  Solving for p, Initial residual = 7.87391e-06, Final residual = 9.98977e-07, No Iterations 6
time step continuity errors : sum local = 0.000218391, global = -5.6898e-06
GAMG:  Solving for p, Initial residual = 5.44546e-06, Final residual = 8.05623e-07, No Iterations 5
time step continuity errors : sum local = 0.000176156, global = -1.5481e-06, cumulative = -0.000661401
ExecutionTime = 104.58 s  ClockTime = 105 s

Courant Number mean: 0.0983544 max: 0.91054
deltaT = 0.0490987
Time = 52.930713s

smoothSolver:  Solving for Ux, Initial residual = 0.000256679, Final residual = 8.73109e-06, No Iterations 3
smoothSolver:  Solving for Uy, Initial residual = 7.39545e-05, Final residual = 9.13424e-06, No Iterations 7
GAMG:  Solving for p, Initial residual = 8.65845e-06, Final residual = 9.63989e-07, No Iterations 6
time step continuity errors : sum local = 0.000236203, global = -8.79513e-07
GAMG:  Solving for p, Initial residual = 6.41684e-06, Final residual = 9.46534e-07, No Iterations 4
time step continuity errors : sum local = 0.000231902, global = -2.909e-06, cumulative = -0.00066431
ExecutionTime = 104.909 s  ClockTime = 105 s

Courant Number mean: 0.111932 max: 1.06784
deltaT = 0.0459794
Time = 52.976692s

smoothSolver:  Solving for Ux, Initial residual = 0.000236895, Final residual = 9.13256e-06, No Iterations 4
smoothSolver:  Solving for Uy, Initial residual = 5.82002e-05, Final residual = 8.9349e-06, No Iterations 6
GAMG:  Solving for p, Initial residual = 1.0417e-05, Final residual = 8.50395e-07, No Iterations 7
time step continuity errors : sum local = 0.000192393, global = -5.99823e-06
GAMG:  Solving for p, Initial residual = 9.06762e-06, Final residual = 9.4401e-07, No Iterations 6
time step continuity errors : sum local = 0.000213617, global = -1.72171e-06, cumulative = -0.000666032
ExecutionTime = 105.283 s  ClockTime = 105 s

Courant Number mean: 0.100021 max: 0.880024
deltaT = 0.0522479
Time = 53.02894s

smoothSolver:  Solving for Ux, Initial residual = 0.000561714, Final residual = 8.45655e-06, No Iterations 6
smoothSolver:  Solving for Uy, Initial residual = 6.6903e-05, Final residual = 9.10908e-06, No Iterations 7
GAMG:  Solving for p, Initial residual = 9.0458e-06, Final residual = 8.25616e-07, No Iterations 7
time step continuity errors : sum local = 0.00021774, global = -1.0265e-07
GAMG:  Solving for p, Initial residual = 7.2441e-06, Final residual = 9.39735e-07, No Iterations 6
time step continuity errors : sum local = 0.000247806, global = -3.29008e-06, cumulative = -0.000669322
ExecutionTime = 106.197 s  ClockTime = 106 s

Courant Number mean: 0.119469 max: 1.18235
deltaT = 0.0441901
Time = 53.07313s

smoothSolver:  Solving for Ux, Initial residual = 0.000313047, Final residual = 8.86202e-06, No Iterations 3
smoothSolver:  Solving for Uy, Initial residual = 5.76344e-05, Final residual = 8.33692e-06, No Iterations 6
GAMG:  Solving for p, Initial residual = 7.69726e-06, Final residual = 9.79545e-07, No Iterations 6
time step continuity errors : sum local = 0.000211348, global = -5.42978e-06
GAMG:  Solving for p, Initial residual = 5.31345e-06, Final residual = 7.89275e-07, No Iterations 5
time step continuity errors : sum local = 0.000170328, global = -1.55135e-06, cumulative = -0.000670874
ExecutionTime = 106.564 s  ClockTime = 107 s

Courant Number mean: 0.0978979 max: 0.915459
deltaT = 0.0482709
Time = 53.121401s

smoothSolver:  Solving for Ux, Initial residual = 0.000258772, Final residual = 8.46931e-06, No Iterations 3
smoothSolver:  Solving for Uy, Initial residual = 7.42161e-05, Final residual = 8.92632e-06, No Iterations 7
GAMG:  Solving for p, Initial residual = 8.38942e-06, Final residual = 9.35188e-07, No Iterations 6
time step continuity errors : sum local = 0.000224769, global = -1.21192e-06
GAMG:  Solving for p, Initial residual = 6.20487e-06, Final residual = 9.15409e-07, No Iterations 4
time step continuity errors : sum local = 0.000219993, global = -2.81701e-06, cumulative = -0.000673691
ExecutionTime = 106.897 s  ClockTime = 107 s

Courant Number mean: 0.11057 max: 1.05972
deltaT = 0.0455505
Time = 53.166952s

smoothSolver:  Solving for Ux, Initial residual = 0.000238897, Final residual = 8.773e-06, No Iterations 4
smoothSolver:  Solving for Uy, Initial residual = 5.84521e-05, Final residual = 8.84657e-06, No Iterations 6
GAMG:  Solving for p, Initial residual = 1.00199e-05, Final residual = 8.20194e-07, No Iterations 7
time step continuity errors : sum local = 0.000183632, global = -5.65085e-06
GAMG:  Solving for p, Initial residual = 8.71725e-06, Final residual = 9.10114e-07, No Iterations 6
time step continuity errors : sum local = 0.000203804, global = -1.74417e-06, cumulative = -0.000675435
ExecutionTime = 107.294 s  ClockTime = 107 s

Courant Number mean: 0.099744 max: 0.887704
deltaT = 0.0513127
Time = 53.218264s

smoothSolver:  Solving for Ux, Initial residual = 0.000555399, Final residual = 7.79378e-06, No Iterations 6
smoothSolver:  Solving for Uy, Initial residual = 6.71267e-05, Final residual = 8.89595e-06, No Iterations 7
GAMG:  Solving for p, Initial residual = 8.61116e-06, Final residual = 7.88023e-07, No Iterations 7
time step continuity errors : sum local = 0.000203635, global = -7.62775e-07
GAMG:  Solving for p, Initial residual = 6.88442e-06, Final residual = 8.96068e-07, No Iterations 6
time step continuity errors : sum local = 0.000231529, global = -3.14962e-06, cumulative = -0.000678584
ExecutionTime = 107.681 s  ClockTime = 108 s

Courant Number mean: 0.117705 max: 1.16652
deltaT = 0.0439879
Time = 53.262252s

smoothSolver:  Solving for Ux, Initial residual = 0.000313794, Final residual = 8.22477e-06, No Iterations 3
smoothSolver:  Solving for Uy, Initial residual = 5.78372e-05, Final residual = 8.29889e-06, No Iterations 6
GAMG:  Solving for p, Initial residual = 7.3001e-06, Final residual = 9.33868e-07, No Iterations 6
time step continuity errors : sum local = 0.000200521, global = -5.01879e-06
GAMG:  Solving for p, Initial residual = 5.03481e-06, Final residual = 7.5268e-07, No Iterations 5
time step continuity errors : sum local = 0.000161645, global = -1.5878e-06, cumulative = -0.000680172
ExecutionTime = 108.017 s  ClockTime = 108 s

Courant Number mean: 0.0979306 max: 0.922042
deltaT = 0.047707
Time = 53.309959s

smoothSolver:  Solving for Ux, Initial residual = 0.000262905, Final residual = 8.02297e-06, No Iterations 3
smoothSolver:  Solving for Uy, Initial residual = 7.44399e-05, Final residual = 8.79314e-06, No Iterations 7
GAMG:  Solving for p, Initial residual = 7.90345e-06, Final residual = 8.82712e-07, No Iterations 6
time step continuity errors : sum local = 0.000209381, global = -1.83273e-06
GAMG:  Solving for p, Initial residual = 5.83753e-06, Final residual = 8.62212e-07, No Iterations 4
time step continuity errors : sum local = 0.0002045, global = -2.71642e-06, cumulative = -0.000682889
ExecutionTime = 108.352 s  ClockTime = 108 s

Courant Number mean: 0.109481 max: 1.05043
deltaT = 0.0454165
Time = 53.355376s

smoothSolver:  Solving for Ux, Initial residual = 0.000242002, Final residual = 8.23119e-06, No Iterations 4
smoothSolver:  Solving for Uy, Initial residual = 5.8624e-05, Final residual = 8.8208e-06, No Iterations 6
GAMG:  Solving for p, Initial residual = 9.40461e-06, Final residual = 7.70247e-07, No Iterations 7
time step continuity errors : sum local = 0.000171953, global = -4.07301e-06
GAMG:  Solving for p, Initial residual = 8.17922e-06, Final residual = 8.58496e-07, No Iterations 6
time step continuity errors : sum local = 0.000191689, global = -1.73657e-06, cumulative = -0.000684625
ExecutionTime = 108.713 s  ClockTime = 109 s

Courant Number mean: 0.0999228 max: 0.897467
deltaT = 0.0506052
Time = 53.405981s

smoothSolver:  Solving for Ux, Initial residual = 0.000540328, Final residual = 8.45152e-06, No Iterations 5
smoothSolver:  Solving for Uy, Initial residual = 6.7179e-05, Final residual = 8.71878e-06, No Iterations 7
GAMG:  Solving for p, Initial residual = 7.95202e-06, Final residual = 7.19395e-07, No Iterations 7
time step continuity errors : sum local = 0.000182864, global = -3.15394e-06
GAMG:  Solving for p, Initial residual = 6.35106e-06, Final residual = 8.26156e-07, No Iterations 6
time step continuity errors : sum local = 0.000209984, global = -2.89239e-06, cumulative = -0.000687518
ExecutionTime = 109.077 s  ClockTime = 109 s

Courant Number mean: 0.115947 max: 1.14223
deltaT = 0.0443038
Time = 53.450285s

smoothSolver:  Solving for Ux, Initial residual = 0.000305316, Final residual = 8.71272e-06, No Iterations 2
smoothSolver:  Solving for Uy, Initial residual = 5.81592e-05, Final residual = 8.41061e-06, No Iterations 6
GAMG:  Solving for p, Initial residual = 6.68234e-06, Final residual = 8.36913e-07, No Iterations 6
time step continuity errors : sum local = 0.000181499, global = -4.54764e-06
GAMG:  Solving for p, Initial residual = 4.64136e-06, Final residual = 9.82346e-07, No Iterations 4
time step continuity errors : sum local = 0.00021307, global = -1.83695e-06, cumulative = -0.000689355
ExecutionTime = 109.387 s  ClockTime = 110 s

Courant Number mean: 0.0977675 max: 0.86883
deltaT = 0.0509924
Time = 53.501277s

smoothSolver:  Solving for Ux, Initial residual = 0.000910478, Final residual = 8.09545e-06, No Iterations 10
smoothSolver:  Solving for Uy, Initial residual = 6.04068e-05, Final residual = 8.03235e-06, No Iterations 7
GAMG:  Solving for p, Initial residual = 1.32082e-05, Final residual = 1.0199e-06, No Iterations 7
time step continuity errors : sum local = 0.000261639, global = -9.68482e-07
GAMG:  Solving for p, Initial residual = 1.20702e-05, Final residual = 7.50547e-07, No Iterations 7
time step continuity errors : sum local = 0.00019252, global = -2.21297e-06, cumulative = -0.000691567
ExecutionTime = 109.786 s  ClockTime = 110 s

Courant Number mean: 0.117025 max: 1.15645
deltaT = 0.0440939
Time = 53.545371s

smoothSolver:  Solving for Ux, Initial residual = 0.000706898, Final residual = 7.75273e-06, No Iterations 7
smoothSolver:  Solving for Uy, Initial residual = 7.68974e-05, Final residual = 8.23301e-06, No Iterations 7
GAMG:  Solving for p, Initial residual = 1.04333e-05, Final residual = 8.61108e-07, No Iterations 7
time step continuity errors : sum local = 0.000185914, global = -7.04086e-06
GAMG:  Solving for p, Initial residual = 9.41212e-06, Final residual = 7.30452e-07, No Iterations 7
time step continuity errors : sum local = 0.000157728, global = -1.90072e-06, cumulative = -0.000693468
ExecutionTime = 110.172 s  ClockTime = 110 s

Courant Number mean: 0.0981563 max: 0.841594
deltaT = 0.0523934
Time = 53.597765s

smoothSolver:  Solving for Ux, Initial residual = 0.000449583, Final residual = 9.68594e-06, No Iterations 6
smoothSolver:  Solving for Uy, Initial residual = 7.71026e-05, Final residual = 8.31069e-06, No Iterations 8
GAMG:  Solving for p, Initial residual = 1.01528e-05, Final residual = 7.02605e-07, No Iterations 8
time step continuity errors : sum local = 0.000186061, global = 6.28872e-07
GAMG:  Solving for p, Initial residual = 7.62112e-06, Final residual = 9.56429e-07, No Iterations 6
time step continuity errors : sum local = 0.000253249, global = -3.58514e-06, cumulative = -0.000697053
ExecutionTime = 110.569 s  ClockTime = 111 s

Courant Number mean: 0.121281 max: 1.22976
deltaT = 0.0426047
Time = 53.640369s

smoothSolver:  Solving for Ux, Initial residual = 0.00040261, Final residual = 9.30613e-06, No Iterations 5
smoothSolver:  Solving for Uy, Initial residual = 5.1312e-05, Final residual = 9.43001e-06, No Iterations 5
GAMG:  Solving for p, Initial residual = 9.79469e-06, Final residual = 9.37441e-07, No Iterations 7
time step continuity errors : sum local = 0.000193865, global = -4.32069e-06
GAMG:  Solving for p, Initial residual = 9.0112e-06, Final residual = 8.54641e-07, No Iterations 6
time step continuity errors : sum local = 0.000176778, global = -1.11968e-06, cumulative = -0.000698173
ExecutionTime = 110.935 s  ClockTime = 111 s

Courant Number mean: 0.0944341 max: 0.83497
deltaT = 0.0510254
Time = 53.691395s

smoothSolver:  Solving for Ux, Initial residual = 0.000363299, Final residual = 7.96427e-06, No Iterations 4
smoothSolver:  Solving for Uy, Initial residual = 6.8638e-05, Final residual = 9.02224e-06, No Iterations 7
GAMG:  Solving for p, Initial residual = 7.46733e-06, Final residual = 7.95999e-07, No Iterations 6
time step continuity errors : sum local = 0.000204838, global = -1.42812e-06
GAMG:  Solving for p, Initial residual = 5.5969e-06, Final residual = 6.30988e-07, No Iterations 4
time step continuity errors : sum local = 0.000162361, global = -2.72538e-06, cumulative = -0.000700898
ExecutionTime = 111.254 s  ClockTime = 112 s

Courant Number mean: 0.117525 max: 1.11036
deltaT = 0.045954
Time = 53.737349s

smoothSolver:  Solving for Ux, Initial residual = 0.000241925, Final residual = 8.17108e-06, No Iterations 3
smoothSolver:  Solving for Uy, Initial residual = 6.25649e-05, Final residual = 9.42163e-06, No Iterations 6
GAMG:  Solving for p, Initial residual = 7.73671e-06, Final residual = 9.14066e-07, No Iterations 6
time step continuity errors : sum local = 0.000207153, global = -7.55149e-06
